

data_phase_Al2O3_0
_pd_block_id Al2O3_0
_pd_block_diffractogram_id pattern_0

_pd_phase_name Al2O3_0
_cell_length_a 4.759296
_cell_length_b 4.759296
_cell_length_c 12.99236
_cell_angle_alpha 90
_cell_angle_beta 90
_cell_angle_gamma 120
_cell_volume 254.8615
_symmetry_space_group_name_H-M R-3cH
loop_
	_symmetry_equiv_pos_as_xyz
	 'x, y, z '
	 '-x, -y, -z '
	 '-x+y, -x, z '
	 '-x+y, y, z+1/2 '
	 '-y, -x, z+1/2 '
	 '-y, x-y, z '
	 'y, -x+y, -z '
	 'y, x, -z+1/2 '
	 'x-y, -y, -z+1/2 '
	 'x-y, x, -z '
	 '-x, -x+y, -z+1/2 '
	 'x, x-y, z+1/2 '
	 'x-1/3, y+1/3, z+1/3 '
	 '-x-1/3, -y+1/3, -z+1/3 '
	 '-x+y-1/3, -x+1/3, z+1/3 '
	 '-x+y-1/3, y+1/3, z-1/6 '
	 '-y-1/3, -x+1/3, z-1/6 '
	 '-y-1/3, x-y+1/3, z+1/3 '
	 'y-1/3, -x+y+1/3, -z+1/3 '
	 'y-1/3, x+1/3, -z-1/6 '
	 'x-y-1/3, -y+1/3, -z-1/6 '
	 'x-y-1/3, x+1/3, -z+1/3 '
	 '-x-1/3, -x+y+1/3, -z-1/6 '
	 'x-1/3, x-y+1/3, z-1/6 '
	 'x+1/3, y-1/3, z-1/3 '
	 '-x+1/3, -y-1/3, -z-1/3 '
	 '-x+y+1/3, -x-1/3, z-1/3 '
	 '-x+y+1/3, y-1/3, z+1/6 '
	 '-y+1/3, -x-1/3, z+1/6 '
	 '-y+1/3, x-y-1/3, z-1/3 '
	 'y+1/3, -x+y-1/3, -z-1/3 '
	 'y+1/3, x-1/3, -z+1/6 '
	 'x-y+1/3, -y-1/3, -z+1/6 '
	 'x-y+1/3, x-1/3, -z-1/3 '
	 '-x+1/3, -x+y-1/3, -z+1/6 '
	 'x+1/3, x-y-1/3, z+1/6 '
loop_
_atom_site_label
_atom_site_type_symbol
_atom_site_site_symmetry_multiplicity
_atom_site_fract_x
_atom_site_fract_y
_atom_site_fract_z
_atom_site_occupancy
_atom_site_B_iso_or_equiv
Al1 Al+3  12 0 0 0.148 1 0.3635723
O1 O-2  18 0.306 0 0.25 1 0.3635723

data_phase_Si_0
_pd_block_id Si_0
_pd_block_diffractogram_id pattern_0

_pd_phase_name Si_0
_cell_length_a 5.431025
_cell_length_b 5.431025
_cell_length_c 5.431025
_cell_angle_alpha 90
_cell_angle_beta 90
_cell_angle_gamma 90
_cell_volume 160.1937
_symmetry_space_group_name_H-M Fd-3mS
loop_
	_symmetry_equiv_pos_as_xyz
	 'x, y, z '
	 '-x, z+1/2, -y+1/2 '
	 '-x+1/4, -y+1/4, -z+1/4 '
	 '-x+1/4, -z+1/4, -y+1/4 '
	 '-x+1/2, -z, y+1/2 '
	 '-x+1/2, y+1/2, -z '
	 '-x-1/4, z-1/4, y+1/4 '
	 '-x-1/4, y+1/4, z-1/4 '
	 '-y, -z+1/2, x+1/2 '
	 '-y, x+1/2, -z+1/2 '
	 '-y+1/4, -x+1/4, -z+1/4 '
	 '-y+1/4, -z+1/4, -x+1/4 '
	 '-y+1/2, -x, z+1/2 '
	 '-y+1/2, z+1/2, -x '
	 '-y-1/4, z+1/4, x-1/4 '
	 '-y-1/4, x-1/4, z+1/4 '
	 '-z, -x+1/2, y+1/2 '
	 '-z, y+1/2, -x+1/2 '
	 '-z+1/4, -x+1/4, -y+1/4 '
	 '-z+1/4, -y+1/4, -x+1/4 '
	 '-z+1/2, -y, x+1/2 '
	 '-z+1/2, x+1/2, -y '
	 '-z-1/4, y-1/4, x+1/4 '
	 '-z-1/4, x+1/4, y-1/4 '
	 'z, y, x '
	 'z, x, y '
	 'z+1/4, -y-1/4, x-1/4 '
	 'z+1/4, x-1/4, -y-1/4 '
	 'z+1/2, -x, -y+1/2 '
	 'z+1/2, -y+1/2, -x '
	 'z-1/4, -x-1/4, y+1/4 '
	 'z-1/4, y+1/4, -x-1/4 '
	 'y, z, x '
	 'y, x, z '
	 'y+1/4, -x-1/4, z-1/4 '
	 'y+1/4, z-1/4, -x-1/4 '
	 'y+1/2, -x+1/2, -z '
	 'y+1/2, -z, -x+1/2 '
	 'y-1/4, -z-1/4, x+1/4 '
	 'y-1/4, x+1/4, -z-1/4 '
	 'x, z, y '
	 '-x, -y+1/2, z+1/2 '
	 'x+1/4, -z-1/4, y-1/4 '
	 'x+1/4, y-1/4, -z-1/4 '
	 'x+1/2, -y, -z+1/2 '
	 'x+1/2, -z+1/2, -y '
	 'x-1/4, -y-1/4, z+1/4 '
	 'x-1/4, z+1/4, -y-1/4 '
	 'x+1/2, y+1/2, z '
	 '-x+1/2, z, -y+1/2 '
	 '-x-1/4, -y-1/4, -z+1/4 '
	 '-x-1/4, -z-1/4, -y+1/4 '
	 '-x, -z+1/2, y+1/2 '
	 '-x, y, -z '
	 '-x+1/4, z+1/4, y+1/4 '
	 '-x+1/4, y-1/4, z-1/4 '
	 '-y+1/2, -z, x+1/2 '
	 '-y+1/2, x, -z+1/2 '
	 '-y-1/4, -x-1/4, -z+1/4 '
	 '-y-1/4, -z-1/4, -x+1/4 '
	 '-y, -x+1/2, z+1/2 '
	 '-y, z, -x '
	 '-y+1/4, z-1/4, x-1/4 '
	 '-y+1/4, x+1/4, z+1/4 '
	 '-z+1/2, -x, y+1/2 '
	 '-z+1/2, y, -x+1/2 '
	 '-z-1/4, -x-1/4, -y+1/4 '
	 '-z-1/4, -y-1/4, -x+1/4 '
	 '-z, -y+1/2, x+1/2 '
	 '-z, x, -y '
	 '-z+1/4, y+1/4, x+1/4 '
	 '-z+1/4, x-1/4, y-1/4 '
	 'z+1/2, y+1/2, x '
	 'z+1/2, x+1/2, y '
	 'z-1/4, -y+1/4, x-1/4 '
	 'z-1/4, x+1/4, -y-1/4 '
	 'z, -x+1/2, -y+1/2 '
	 'z, -y, -x '
	 'z+1/4, -x+1/4, y+1/4 '
	 'z+1/4, y-1/4, -x-1/4 '
	 'y+1/2, z+1/2, x '
	 'y+1/2, x+1/2, z '
	 'y-1/4, -x+1/4, z-1/4 '
	 'y-1/4, z+1/4, -x-1/4 '
	 'y, -x, -z '
	 'y, -z+1/2, -x+1/2 '
	 'y+1/4, -z+1/4, x+1/4 '
	 'y+1/4, x-1/4, -z-1/4 '
	 'x+1/2, z+1/2, y '
	 '-x+1/2, -y, z+1/2 '
	 'x-1/4, -z+1/4, y-1/4 '
	 'x-1/4, y+1/4, -z-1/4 '
	 'x, -y+1/2, -z+1/2 '
	 'x, -z, -y '
	 'x+1/4, -y+1/4, z+1/4 '
	 'x+1/4, z-1/4, -y-1/4 '
	 'x+1/2, y, z+1/2 '
	 '-x+1/2, z+1/2, -y '
	 '-x-1/4, -y+1/4, -z-1/4 '
	 '-x-1/4, -z+1/4, -y-1/4 '
	 '-x, -z, y '
	 '-x, y+1/2, -z+1/2 '
	 '-x+1/4, z-1/4, y-1/4 '
	 '-x+1/4, y+1/4, z+1/4 '
	 '-y+1/2, -z+1/2, x '
	 '-y+1/2, x+1/2, -z '
	 '-y-1/4, -x+1/4, -z-1/4 '
	 '-y-1/4, -z+1/4, -x-1/4 '
	 '-y, -x, z '
	 '-y, z+1/2, -x+1/2 '
	 '-y+1/4, z+1/4, x+1/4 '
	 '-y+1/4, x-1/4, z-1/4 '
	 '-z+1/2, -x+1/2, y '
	 '-z+1/2, y+1/2, -x '
	 '-z-1/4, -x+1/4, -y-1/4 '
	 '-z-1/4, -y+1/4, -x-1/4 '
	 '-z, -y, x '
	 '-z, x+1/2, -y+1/2 '
	 '-z+1/4, y-1/4, x-1/4 '
	 '-z+1/4, x+1/4, y+1/4 '
	 'z+1/2, y, x+1/2 '
	 'z+1/2, x, y+1/2 '
	 'z-1/4, -y-1/4, x+1/4 '
	 'z-1/4, x-1/4, -y+1/4 '
	 'z, -x, -y '
	 'z, -y+1/2, -x+1/2 '
	 'z+1/4, -x-1/4, y-1/4 '
	 'z+1/4, y+1/4, -x+1/4 '
	 'y+1/2, z, x+1/2 '
	 'y+1/2, x, z+1/2 '
	 'y-1/4, -x-1/4, z+1/4 '
	 'y-1/4, z-1/4, -x+1/4 '
	 'y, -x+1/2, -z+1/2 '
	 'y, -z, -x '
	 'y+1/4, -z-1/4, x-1/4 '
	 'y+1/4, x+1/4, -z+1/4 '
	 'x+1/2, z, y+1/2 '
	 '-x+1/2, -y+1/2, z '
	 'x-1/4, -z-1/4, y+1/4 '
	 'x-1/4, y-1/4, -z+1/4 '
	 'x, -y, -z '
	 'x, -z+1/2, -y+1/2 '
	 'x+1/4, -y-1/4, z-1/4 '
	 'x+1/4, z+1/4, -y+1/4 '
	 'x, y+1/2, z+1/2 '
	 '-x, z, -y '
	 '-x+1/4, -y-1/4, -z-1/4 '
	 '-x+1/4, -z-1/4, -y-1/4 '
	 '-x+1/2, -z+1/2, y '
	 '-x+1/2, y, -z+1/2 '
	 '-x-1/4, z+1/4, y-1/4 '
	 '-x-1/4, y-1/4, z+1/4 '
	 '-y, -z, x '
	 '-y, x, -z '
	 '-y+1/4, -x-1/4, -z-1/4 '
	 '-y+1/4, -z-1/4, -x-1/4 '
	 '-y+1/2, -x+1/2, z '
	 '-y+1/2, z, -x+1/2 '
	 '-y-1/4, z-1/4, x+1/4 '
	 '-y-1/4, x+1/4, z-1/4 '
	 '-z, -x, y '
	 '-z, y, -x '
	 '-z+1/4, -x-1/4, -y-1/4 '
	 '-z+1/4, -y-1/4, -x-1/4 '
	 '-z+1/2, -y+1/2, x '
	 '-z+1/2, x, -y+1/2 '
	 '-z-1/4, y+1/4, x-1/4 '
	 '-z-1/4, x-1/4, y+1/4 '
	 'z, y+1/2, x+1/2 '
	 'z, x+1/2, y+1/2 '
	 'z+1/4, -y+1/4, x+1/4 '
	 'z+1/4, x+1/4, -y+1/4 '
	 'z+1/2, -x+1/2, -y '
	 'z+1/2, -y, -x+1/2 '
	 'z-1/4, -x+1/4, y-1/4 '
	 'z-1/4, y-1/4, -x+1/4 '
	 'y, z+1/2, x+1/2 '
	 'y, x+1/2, z+1/2 '
	 'y+1/4, -x+1/4, z+1/4 '
	 'y+1/4, z+1/4, -x+1/4 '
	 'y+1/2, -x, -z+1/2 '
	 'y+1/2, -z+1/2, -x '
	 'y-1/4, -z+1/4, x-1/4 '
	 'y-1/4, x-1/4, -z+1/4 '
	 'x, z+1/2, y+1/2 '
	 '-x, -y, z '
	 'x+1/4, -z+1/4, y+1/4 '
	 'x+1/4, y+1/4, -z+1/4 '
	 'x+1/2, -y+1/2, -z '
	 'x+1/2, -z, -y+1/2 '
	 'x-1/4, -y+1/4, z-1/4 '
	 'x-1/4, z-1/4, -y+1/4 '
loop_
_atom_site_label
_atom_site_type_symbol
_atom_site_site_symmetry_multiplicity
_atom_site_fract_x
_atom_site_fract_y
_atom_site_fract_z
_atom_site_occupancy
_atom_site_B_iso_or_equiv
Si1 Si   8 0 0 0 1 0.3872382

data_phase_Al2O3_1
_pd_block_id Al2O3_1
_pd_block_diffractogram_id pattern_1

_pd_phase_name Al2O3_1
_cell_length_a 4.759807
_cell_length_b 4.759807
_cell_length_c 12.99405
_cell_angle_alpha 90
_cell_angle_beta 90
_cell_angle_gamma 120
_cell_volume 254.9494
_symmetry_space_group_name_H-M R-3cH
loop_
	_symmetry_equiv_pos_as_xyz
	 'x, y, z '
	 '-x, -y, -z '
	 '-x+y, -x, z '
	 '-x+y, y, z+1/2 '
	 '-y, -x, z+1/2 '
	 '-y, x-y, z '
	 'y, -x+y, -z '
	 'y, x, -z+1/2 '
	 'x-y, -y, -z+1/2 '
	 'x-y, x, -z '
	 '-x, -x+y, -z+1/2 '
	 'x, x-y, z+1/2 '
	 'x-1/3, y+1/3, z+1/3 '
	 '-x-1/3, -y+1/3, -z+1/3 '
	 '-x+y-1/3, -x+1/3, z+1/3 '
	 '-x+y-1/3, y+1/3, z-1/6 '
	 '-y-1/3, -x+1/3, z-1/6 '
	 '-y-1/3, x-y+1/3, z+1/3 '
	 'y-1/3, -x+y+1/3, -z+1/3 '
	 'y-1/3, x+1/3, -z-1/6 '
	 'x-y-1/3, -y+1/3, -z-1/6 '
	 'x-y-1/3, x+1/3, -z+1/3 '
	 '-x-1/3, -x+y+1/3, -z-1/6 '
	 'x-1/3, x-y+1/3, z-1/6 '
	 'x+1/3, y-1/3, z-1/3 '
	 '-x+1/3, -y-1/3, -z-1/3 '
	 '-x+y+1/3, -x-1/3, z-1/3 '
	 '-x+y+1/3, y-1/3, z+1/6 '
	 '-y+1/3, -x-1/3, z+1/6 '
	 '-y+1/3, x-y-1/3, z-1/3 '
	 'y+1/3, -x+y-1/3, -z-1/3 '
	 'y+1/3, x-1/3, -z+1/6 '
	 'x-y+1/3, -y-1/3, -z+1/6 '
	 'x-y+1/3, x-1/3, -z-1/3 '
	 '-x+1/3, -x+y-1/3, -z+1/6 '
	 'x+1/3, x-y-1/3, z+1/6 '
loop_
_atom_site_label
_atom_site_type_symbol
_atom_site_site_symmetry_multiplicity
_atom_site_fract_x
_atom_site_fract_y
_atom_site_fract_z
_atom_site_occupancy
_atom_site_B_iso_or_equiv
Al1 Al+3  12 0 0 0.148 1 0.3470689
O1 O-2  18 0.306 0 0.25 1 0.3470689

data_phase_Si_1
_pd_block_id Si_1
_pd_block_diffractogram_id pattern_1

_pd_phase_name Si_1
_cell_length_a 5.431349
_cell_length_b 5.431349
_cell_length_c 5.431349
_cell_angle_alpha 90
_cell_angle_beta 90
_cell_angle_gamma 90
_cell_volume 160.2224
_symmetry_space_group_name_H-M Fd-3mS
loop_
	_symmetry_equiv_pos_as_xyz
	 'x, y, z '
	 '-x, z+1/2, -y+1/2 '
	 '-x+1/4, -y+1/4, -z+1/4 '
	 '-x+1/4, -z+1/4, -y+1/4 '
	 '-x+1/2, -z, y+1/2 '
	 '-x+1/2, y+1/2, -z '
	 '-x-1/4, z-1/4, y+1/4 '
	 '-x-1/4, y+1/4, z-1/4 '
	 '-y, -z+1/2, x+1/2 '
	 '-y, x+1/2, -z+1/2 '
	 '-y+1/4, -x+1/4, -z+1/4 '
	 '-y+1/4, -z+1/4, -x+1/4 '
	 '-y+1/2, -x, z+1/2 '
	 '-y+1/2, z+1/2, -x '
	 '-y-1/4, z+1/4, x-1/4 '
	 '-y-1/4, x-1/4, z+1/4 '
	 '-z, -x+1/2, y+1/2 '
	 '-z, y+1/2, -x+1/2 '
	 '-z+1/4, -x+1/4, -y+1/4 '
	 '-z+1/4, -y+1/4, -x+1/4 '
	 '-z+1/2, -y, x+1/2 '
	 '-z+1/2, x+1/2, -y '
	 '-z-1/4, y-1/4, x+1/4 '
	 '-z-1/4, x+1/4, y-1/4 '
	 'z, y, x '
	 'z, x, y '
	 'z+1/4, -y-1/4, x-1/4 '
	 'z+1/4, x-1/4, -y-1/4 '
	 'z+1/2, -x, -y+1/2 '
	 'z+1/2, -y+1/2, -x '
	 'z-1/4, -x-1/4, y+1/4 '
	 'z-1/4, y+1/4, -x-1/4 '
	 'y, z, x '
	 'y, x, z '
	 'y+1/4, -x-1/4, z-1/4 '
	 'y+1/4, z-1/4, -x-1/4 '
	 'y+1/2, -x+1/2, -z '
	 'y+1/2, -z, -x+1/2 '
	 'y-1/4, -z-1/4, x+1/4 '
	 'y-1/4, x+1/4, -z-1/4 '
	 'x, z, y '
	 '-x, -y+1/2, z+1/2 '
	 'x+1/4, -z-1/4, y-1/4 '
	 'x+1/4, y-1/4, -z-1/4 '
	 'x+1/2, -y, -z+1/2 '
	 'x+1/2, -z+1/2, -y '
	 'x-1/4, -y-1/4, z+1/4 '
	 'x-1/4, z+1/4, -y-1/4 '
	 'x+1/2, y+1/2, z '
	 '-x+1/2, z, -y+1/2 '
	 '-x-1/4, -y-1/4, -z+1/4 '
	 '-x-1/4, -z-1/4, -y+1/4 '
	 '-x, -z+1/2, y+1/2 '
	 '-x, y, -z '
	 '-x+1/4, z+1/4, y+1/4 '
	 '-x+1/4, y-1/4, z-1/4 '
	 '-y+1/2, -z, x+1/2 '
	 '-y+1/2, x, -z+1/2 '
	 '-y-1/4, -x-1/4, -z+1/4 '
	 '-y-1/4, -z-1/4, -x+1/4 '
	 '-y, -x+1/2, z+1/2 '
	 '-y, z, -x '
	 '-y+1/4, z-1/4, x-1/4 '
	 '-y+1/4, x+1/4, z+1/4 '
	 '-z+1/2, -x, y+1/2 '
	 '-z+1/2, y, -x+1/2 '
	 '-z-1/4, -x-1/4, -y+1/4 '
	 '-z-1/4, -y-1/4, -x+1/4 '
	 '-z, -y+1/2, x+1/2 '
	 '-z, x, -y '
	 '-z+1/4, y+1/4, x+1/4 '
	 '-z+1/4, x-1/4, y-1/4 '
	 'z+1/2, y+1/2, x '
	 'z+1/2, x+1/2, y '
	 'z-1/4, -y+1/4, x-1/4 '
	 'z-1/4, x+1/4, -y-1/4 '
	 'z, -x+1/2, -y+1/2 '
	 'z, -y, -x '
	 'z+1/4, -x+1/4, y+1/4 '
	 'z+1/4, y-1/4, -x-1/4 '
	 'y+1/2, z+1/2, x '
	 'y+1/2, x+1/2, z '
	 'y-1/4, -x+1/4, z-1/4 '
	 'y-1/4, z+1/4, -x-1/4 '
	 'y, -x, -z '
	 'y, -z+1/2, -x+1/2 '
	 'y+1/4, -z+1/4, x+1/4 '
	 'y+1/4, x-1/4, -z-1/4 '
	 'x+1/2, z+1/2, y '
	 '-x+1/2, -y, z+1/2 '
	 'x-1/4, -z+1/4, y-1/4 '
	 'x-1/4, y+1/4, -z-1/4 '
	 'x, -y+1/2, -z+1/2 '
	 'x, -z, -y '
	 'x+1/4, -y+1/4, z+1/4 '
	 'x+1/4, z-1/4, -y-1/4 '
	 'x+1/2, y, z+1/2 '
	 '-x+1/2, z+1/2, -y '
	 '-x-1/4, -y+1/4, -z-1/4 '
	 '-x-1/4, -z+1/4, -y-1/4 '
	 '-x, -z, y '
	 '-x, y+1/2, -z+1/2 '
	 '-x+1/4, z-1/4, y-1/4 '
	 '-x+1/4, y+1/4, z+1/4 '
	 '-y+1/2, -z+1/2, x '
	 '-y+1/2, x+1/2, -z '
	 '-y-1/4, -x+1/4, -z-1/4 '
	 '-y-1/4, -z+1/4, -x-1/4 '
	 '-y, -x, z '
	 '-y, z+1/2, -x+1/2 '
	 '-y+1/4, z+1/4, x+1/4 '
	 '-y+1/4, x-1/4, z-1/4 '
	 '-z+1/2, -x+1/2, y '
	 '-z+1/2, y+1/2, -x '
	 '-z-1/4, -x+1/4, -y-1/4 '
	 '-z-1/4, -y+1/4, -x-1/4 '
	 '-z, -y, x '
	 '-z, x+1/2, -y+1/2 '
	 '-z+1/4, y-1/4, x-1/4 '
	 '-z+1/4, x+1/4, y+1/4 '
	 'z+1/2, y, x+1/2 '
	 'z+1/2, x, y+1/2 '
	 'z-1/4, -y-1/4, x+1/4 '
	 'z-1/4, x-1/4, -y+1/4 '
	 'z, -x, -y '
	 'z, -y+1/2, -x+1/2 '
	 'z+1/4, -x-1/4, y-1/4 '
	 'z+1/4, y+1/4, -x+1/4 '
	 'y+1/2, z, x+1/2 '
	 'y+1/2, x, z+1/2 '
	 'y-1/4, -x-1/4, z+1/4 '
	 'y-1/4, z-1/4, -x+1/4 '
	 'y, -x+1/2, -z+1/2 '
	 'y, -z, -x '
	 'y+1/4, -z-1/4, x-1/4 '
	 'y+1/4, x+1/4, -z+1/4 '
	 'x+1/2, z, y+1/2 '
	 '-x+1/2, -y+1/2, z '
	 'x-1/4, -z-1/4, y+1/4 '
	 'x-1/4, y-1/4, -z+1/4 '
	 'x, -y, -z '
	 'x, -z+1/2, -y+1/2 '
	 'x+1/4, -y-1/4, z-1/4 '
	 'x+1/4, z+1/4, -y+1/4 '
	 'x, y+1/2, z+1/2 '
	 '-x, z, -y '
	 '-x+1/4, -y-1/4, -z-1/4 '
	 '-x+1/4, -z-1/4, -y-1/4 '
	 '-x+1/2, -z+1/2, y '
	 '-x+1/2, y, -z+1/2 '
	 '-x-1/4, z+1/4, y-1/4 '
	 '-x-1/4, y-1/4, z+1/4 '
	 '-y, -z, x '
	 '-y, x, -z '
	 '-y+1/4, -x-1/4, -z-1/4 '
	 '-y+1/4, -z-1/4, -x-1/4 '
	 '-y+1/2, -x+1/2, z '
	 '-y+1/2, z, -x+1/2 '
	 '-y-1/4, z-1/4, x+1/4 '
	 '-y-1/4, x+1/4, z-1/4 '
	 '-z, -x, y '
	 '-z, y, -x '
	 '-z+1/4, -x-1/4, -y-1/4 '
	 '-z+1/4, -y-1/4, -x-1/4 '
	 '-z+1/2, -y+1/2, x '
	 '-z+1/2, x, -y+1/2 '
	 '-z-1/4, y+1/4, x-1/4 '
	 '-z-1/4, x-1/4, y+1/4 '
	 'z, y+1/2, x+1/2 '
	 'z, x+1/2, y+1/2 '
	 'z+1/4, -y+1/4, x+1/4 '
	 'z+1/4, x+1/4, -y+1/4 '
	 'z+1/2, -x+1/2, -y '
	 'z+1/2, -y, -x+1/2 '
	 'z-1/4, -x+1/4, y-1/4 '
	 'z-1/4, y-1/4, -x+1/4 '
	 'y, z+1/2, x+1/2 '
	 'y, x+1/2, z+1/2 '
	 'y+1/4, -x+1/4, z+1/4 '
	 'y+1/4, z+1/4, -x+1/4 '
	 'y+1/2, -x, -z+1/2 '
	 'y+1/2, -z+1/2, -x '
	 'y-1/4, -z+1/4, x-1/4 '
	 'y-1/4, x-1/4, -z+1/4 '
	 'x, z+1/2, y+1/2 '
	 '-x, -y, z '
	 'x+1/4, -z+1/4, y+1/4 '
	 'x+1/4, y+1/4, -z+1/4 '
	 'x+1/2, -y+1/2, -z '
	 'x+1/2, -z, -y+1/2 '
	 'x-1/4, -y+1/4, z-1/4 '
	 'x-1/4, z-1/4, -y+1/4 '
loop_
_atom_site_label
_atom_site_type_symbol
_atom_site_site_symmetry_multiplicity
_atom_site_fract_x
_atom_site_fract_y
_atom_site_fract_z
_atom_site_occupancy
_atom_site_B_iso_or_equiv
Si1 Si   8 0 0 0 1 0.4081561

data_phase_Al2O3_2
_pd_block_id Al2O3_2
_pd_block_diffractogram_id pattern_2

_pd_phase_name Al2O3_2
_cell_length_a 4.760327
_cell_length_b 4.760327
_cell_length_c 12.99565
_cell_angle_alpha 90
_cell_angle_beta 90
_cell_angle_gamma 120
_cell_volume 255.0365
_symmetry_space_group_name_H-M R-3cH
loop_
	_symmetry_equiv_pos_as_xyz
	 'x, y, z '
	 '-x, -y, -z '
	 '-x+y, -x, z '
	 '-x+y, y, z+1/2 '
	 '-y, -x, z+1/2 '
	 '-y, x-y, z '
	 'y, -x+y, -z '
	 'y, x, -z+1/2 '
	 'x-y, -y, -z+1/2 '
	 'x-y, x, -z '
	 '-x, -x+y, -z+1/2 '
	 'x, x-y, z+1/2 '
	 'x-1/3, y+1/3, z+1/3 '
	 '-x-1/3, -y+1/3, -z+1/3 '
	 '-x+y-1/3, -x+1/3, z+1/3 '
	 '-x+y-1/3, y+1/3, z-1/6 '
	 '-y-1/3, -x+1/3, z-1/6 '
	 '-y-1/3, x-y+1/3, z+1/3 '
	 'y-1/3, -x+y+1/3, -z+1/3 '
	 'y-1/3, x+1/3, -z-1/6 '
	 'x-y-1/3, -y+1/3, -z-1/6 '
	 'x-y-1/3, x+1/3, -z+1/3 '
	 '-x-1/3, -x+y+1/3, -z-1/6 '
	 'x-1/3, x-y+1/3, z-1/6 '
	 'x+1/3, y-1/3, z-1/3 '
	 '-x+1/3, -y-1/3, -z-1/3 '
	 '-x+y+1/3, -x-1/3, z-1/3 '
	 '-x+y+1/3, y-1/3, z+1/6 '
	 '-y+1/3, -x-1/3, z+1/6 '
	 '-y+1/3, x-y-1/3, z-1/3 '
	 'y+1/3, -x+y-1/3, -z-1/3 '
	 'y+1/3, x-1/3, -z+1/6 '
	 'x-y+1/3, -y-1/3, -z+1/6 '
	 'x-y+1/3, x-1/3, -z-1/3 '
	 '-x+1/3, -x+y-1/3, -z+1/6 '
	 'x+1/3, x-y-1/3, z+1/6 '
loop_
_atom_site_label
_atom_site_type_symbol
_atom_site_site_symmetry_multiplicity
_atom_site_fract_x
_atom_site_fract_y
_atom_site_fract_z
_atom_site_occupancy
_atom_site_B_iso_or_equiv
Al1 Al+3  12 0 0 0.148 1 0.3321657
O1 O-2  18 0.306 0 0.25 1 0.3321657

data_phase_Si_2
_pd_block_id Si_2
_pd_block_diffractogram_id pattern_2

_pd_phase_name Si_2
_cell_length_a 5.431642
_cell_length_b 5.431642
_cell_length_c 5.431642
_cell_angle_alpha 90
_cell_angle_beta 90
_cell_angle_gamma 90
_cell_volume 160.2483
_symmetry_space_group_name_H-M Fd-3mS
loop_
	_symmetry_equiv_pos_as_xyz
	 'x, y, z '
	 '-x, z+1/2, -y+1/2 '
	 '-x+1/4, -y+1/4, -z+1/4 '
	 '-x+1/4, -z+1/4, -y+1/4 '
	 '-x+1/2, -z, y+1/2 '
	 '-x+1/2, y+1/2, -z '
	 '-x-1/4, z-1/4, y+1/4 '
	 '-x-1/4, y+1/4, z-1/4 '
	 '-y, -z+1/2, x+1/2 '
	 '-y, x+1/2, -z+1/2 '
	 '-y+1/4, -x+1/4, -z+1/4 '
	 '-y+1/4, -z+1/4, -x+1/4 '
	 '-y+1/2, -x, z+1/2 '
	 '-y+1/2, z+1/2, -x '
	 '-y-1/4, z+1/4, x-1/4 '
	 '-y-1/4, x-1/4, z+1/4 '
	 '-z, -x+1/2, y+1/2 '
	 '-z, y+1/2, -x+1/2 '
	 '-z+1/4, -x+1/4, -y+1/4 '
	 '-z+1/4, -y+1/4, -x+1/4 '
	 '-z+1/2, -y, x+1/2 '
	 '-z+1/2, x+1/2, -y '
	 '-z-1/4, y-1/4, x+1/4 '
	 '-z-1/4, x+1/4, y-1/4 '
	 'z, y, x '
	 'z, x, y '
	 'z+1/4, -y-1/4, x-1/4 '
	 'z+1/4, x-1/4, -y-1/4 '
	 'z+1/2, -x, -y+1/2 '
	 'z+1/2, -y+1/2, -x '
	 'z-1/4, -x-1/4, y+1/4 '
	 'z-1/4, y+1/4, -x-1/4 '
	 'y, z, x '
	 'y, x, z '
	 'y+1/4, -x-1/4, z-1/4 '
	 'y+1/4, z-1/4, -x-1/4 '
	 'y+1/2, -x+1/2, -z '
	 'y+1/2, -z, -x+1/2 '
	 'y-1/4, -z-1/4, x+1/4 '
	 'y-1/4, x+1/4, -z-1/4 '
	 'x, z, y '
	 '-x, -y+1/2, z+1/2 '
	 'x+1/4, -z-1/4, y-1/4 '
	 'x+1/4, y-1/4, -z-1/4 '
	 'x+1/2, -y, -z+1/2 '
	 'x+1/2, -z+1/2, -y '
	 'x-1/4, -y-1/4, z+1/4 '
	 'x-1/4, z+1/4, -y-1/4 '
	 'x+1/2, y+1/2, z '
	 '-x+1/2, z, -y+1/2 '
	 '-x-1/4, -y-1/4, -z+1/4 '
	 '-x-1/4, -z-1/4, -y+1/4 '
	 '-x, -z+1/2, y+1/2 '
	 '-x, y, -z '
	 '-x+1/4, z+1/4, y+1/4 '
	 '-x+1/4, y-1/4, z-1/4 '
	 '-y+1/2, -z, x+1/2 '
	 '-y+1/2, x, -z+1/2 '
	 '-y-1/4, -x-1/4, -z+1/4 '
	 '-y-1/4, -z-1/4, -x+1/4 '
	 '-y, -x+1/2, z+1/2 '
	 '-y, z, -x '
	 '-y+1/4, z-1/4, x-1/4 '
	 '-y+1/4, x+1/4, z+1/4 '
	 '-z+1/2, -x, y+1/2 '
	 '-z+1/2, y, -x+1/2 '
	 '-z-1/4, -x-1/4, -y+1/4 '
	 '-z-1/4, -y-1/4, -x+1/4 '
	 '-z, -y+1/2, x+1/2 '
	 '-z, x, -y '
	 '-z+1/4, y+1/4, x+1/4 '
	 '-z+1/4, x-1/4, y-1/4 '
	 'z+1/2, y+1/2, x '
	 'z+1/2, x+1/2, y '
	 'z-1/4, -y+1/4, x-1/4 '
	 'z-1/4, x+1/4, -y-1/4 '
	 'z, -x+1/2, -y+1/2 '
	 'z, -y, -x '
	 'z+1/4, -x+1/4, y+1/4 '
	 'z+1/4, y-1/4, -x-1/4 '
	 'y+1/2, z+1/2, x '
	 'y+1/2, x+1/2, z '
	 'y-1/4, -x+1/4, z-1/4 '
	 'y-1/4, z+1/4, -x-1/4 '
	 'y, -x, -z '
	 'y, -z+1/2, -x+1/2 '
	 'y+1/4, -z+1/4, x+1/4 '
	 'y+1/4, x-1/4, -z-1/4 '
	 'x+1/2, z+1/2, y '
	 '-x+1/2, -y, z+1/2 '
	 'x-1/4, -z+1/4, y-1/4 '
	 'x-1/4, y+1/4, -z-1/4 '
	 'x, -y+1/2, -z+1/2 '
	 'x, -z, -y '
	 'x+1/4, -y+1/4, z+1/4 '
	 'x+1/4, z-1/4, -y-1/4 '
	 'x+1/2, y, z+1/2 '
	 '-x+1/2, z+1/2, -y '
	 '-x-1/4, -y+1/4, -z-1/4 '
	 '-x-1/4, -z+1/4, -y-1/4 '
	 '-x, -z, y '
	 '-x, y+1/2, -z+1/2 '
	 '-x+1/4, z-1/4, y-1/4 '
	 '-x+1/4, y+1/4, z+1/4 '
	 '-y+1/2, -z+1/2, x '
	 '-y+1/2, x+1/2, -z '
	 '-y-1/4, -x+1/4, -z-1/4 '
	 '-y-1/4, -z+1/4, -x-1/4 '
	 '-y, -x, z '
	 '-y, z+1/2, -x+1/2 '
	 '-y+1/4, z+1/4, x+1/4 '
	 '-y+1/4, x-1/4, z-1/4 '
	 '-z+1/2, -x+1/2, y '
	 '-z+1/2, y+1/2, -x '
	 '-z-1/4, -x+1/4, -y-1/4 '
	 '-z-1/4, -y+1/4, -x-1/4 '
	 '-z, -y, x '
	 '-z, x+1/2, -y+1/2 '
	 '-z+1/4, y-1/4, x-1/4 '
	 '-z+1/4, x+1/4, y+1/4 '
	 'z+1/2, y, x+1/2 '
	 'z+1/2, x, y+1/2 '
	 'z-1/4, -y-1/4, x+1/4 '
	 'z-1/4, x-1/4, -y+1/4 '
	 'z, -x, -y '
	 'z, -y+1/2, -x+1/2 '
	 'z+1/4, -x-1/4, y-1/4 '
	 'z+1/4, y+1/4, -x+1/4 '
	 'y+1/2, z, x+1/2 '
	 'y+1/2, x, z+1/2 '
	 'y-1/4, -x-1/4, z+1/4 '
	 'y-1/4, z-1/4, -x+1/4 '
	 'y, -x+1/2, -z+1/2 '
	 'y, -z, -x '
	 'y+1/4, -z-1/4, x-1/4 '
	 'y+1/4, x+1/4, -z+1/4 '
	 'x+1/2, z, y+1/2 '
	 '-x+1/2, -y+1/2, z '
	 'x-1/4, -z-1/4, y+1/4 '
	 'x-1/4, y-1/4, -z+1/4 '
	 'x, -y, -z '
	 'x, -z+1/2, -y+1/2 '
	 'x+1/4, -y-1/4, z-1/4 '
	 'x+1/4, z+1/4, -y+1/4 '
	 'x, y+1/2, z+1/2 '
	 '-x, z, -y '
	 '-x+1/4, -y-1/4, -z-1/4 '
	 '-x+1/4, -z-1/4, -y-1/4 '
	 '-x+1/2, -z+1/2, y '
	 '-x+1/2, y, -z+1/2 '
	 '-x-1/4, z+1/4, y-1/4 '
	 '-x-1/4, y-1/4, z+1/4 '
	 '-y, -z, x '
	 '-y, x, -z '
	 '-y+1/4, -x-1/4, -z-1/4 '
	 '-y+1/4, -z-1/4, -x-1/4 '
	 '-y+1/2, -x+1/2, z '
	 '-y+1/2, z, -x+1/2 '
	 '-y-1/4, z-1/4, x+1/4 '
	 '-y-1/4, x+1/4, z-1/4 '
	 '-z, -x, y '
	 '-z, y, -x '
	 '-z+1/4, -x-1/4, -y-1/4 '
	 '-z+1/4, -y-1/4, -x-1/4 '
	 '-z+1/2, -y+1/2, x '
	 '-z+1/2, x, -y+1/2 '
	 '-z-1/4, y+1/4, x-1/4 '
	 '-z-1/4, x-1/4, y+1/4 '
	 'z, y+1/2, x+1/2 '
	 'z, x+1/2, y+1/2 '
	 'z+1/4, -y+1/4, x+1/4 '
	 'z+1/4, x+1/4, -y+1/4 '
	 'z+1/2, -x+1/2, -y '
	 'z+1/2, -y, -x+1/2 '
	 'z-1/4, -x+1/4, y-1/4 '
	 'z-1/4, y-1/4, -x+1/4 '
	 'y, z+1/2, x+1/2 '
	 'y, x+1/2, z+1/2 '
	 'y+1/4, -x+1/4, z+1/4 '
	 'y+1/4, z+1/4, -x+1/4 '
	 'y+1/2, -x, -z+1/2 '
	 'y+1/2, -z+1/2, -x '
	 'y-1/4, -z+1/4, x-1/4 '
	 'y-1/4, x-1/4, -z+1/4 '
	 'x, z+1/2, y+1/2 '
	 '-x, -y, z '
	 'x+1/4, -z+1/4, y+1/4 '
	 'x+1/4, y+1/4, -z+1/4 '
	 'x+1/2, -y+1/2, -z '
	 'x+1/2, -z, -y+1/2 '
	 'x-1/4, -y+1/4, z-1/4 '
	 'x-1/4, z-1/4, -y+1/4 '
loop_
_atom_site_label
_atom_site_type_symbol
_atom_site_site_symmetry_multiplicity
_atom_site_fract_x
_atom_site_fract_y
_atom_site_fract_z
_atom_site_occupancy
_atom_site_B_iso_or_equiv
Si1 Si   8 0 0 0 1 0.4211065

data_phase_Al2O3_3
_pd_block_id Al2O3_3
_pd_block_diffractogram_id pattern_3

_pd_phase_name Al2O3_3
_cell_length_a 4.7609
_cell_length_b 4.7609
_cell_length_c 12.99744
_cell_angle_alpha 90
_cell_angle_beta 90
_cell_angle_gamma 120
_cell_volume 255.1329
_symmetry_space_group_name_H-M R-3cH
loop_
	_symmetry_equiv_pos_as_xyz
	 'x, y, z '
	 '-x, -y, -z '
	 '-x+y, -x, z '
	 '-x+y, y, z+1/2 '
	 '-y, -x, z+1/2 '
	 '-y, x-y, z '
	 'y, -x+y, -z '
	 'y, x, -z+1/2 '
	 'x-y, -y, -z+1/2 '
	 'x-y, x, -z '
	 '-x, -x+y, -z+1/2 '
	 'x, x-y, z+1/2 '
	 'x-1/3, y+1/3, z+1/3 '
	 '-x-1/3, -y+1/3, -z+1/3 '
	 '-x+y-1/3, -x+1/3, z+1/3 '
	 '-x+y-1/3, y+1/3, z-1/6 '
	 '-y-1/3, -x+1/3, z-1/6 '
	 '-y-1/3, x-y+1/3, z+1/3 '
	 'y-1/3, -x+y+1/3, -z+1/3 '
	 'y-1/3, x+1/3, -z-1/6 '
	 'x-y-1/3, -y+1/3, -z-1/6 '
	 'x-y-1/3, x+1/3, -z+1/3 '
	 '-x-1/3, -x+y+1/3, -z-1/6 '
	 'x-1/3, x-y+1/3, z-1/6 '
	 'x+1/3, y-1/3, z-1/3 '
	 '-x+1/3, -y-1/3, -z-1/3 '
	 '-x+y+1/3, -x-1/3, z-1/3 '
	 '-x+y+1/3, y-1/3, z+1/6 '
	 '-y+1/3, -x-1/3, z+1/6 '
	 '-y+1/3, x-y-1/3, z-1/3 '
	 'y+1/3, -x+y-1/3, -z-1/3 '
	 'y+1/3, x-1/3, -z+1/6 '
	 'x-y+1/3, -y-1/3, -z+1/6 '
	 'x-y+1/3, x-1/3, -z-1/3 '
	 '-x+1/3, -x+y-1/3, -z+1/6 '
	 'x+1/3, x-y-1/3, z+1/6 '
loop_
_atom_site_label
_atom_site_type_symbol
_atom_site_site_symmetry_multiplicity
_atom_site_fract_x
_atom_site_fract_y
_atom_site_fract_z
_atom_site_occupancy
_atom_site_B_iso_or_equiv
Al1 Al+3  12 0 0 0.148 1 0.3540191
O1 O-2  18 0.306 0 0.25 1 0.3540191

data_phase_Si_3
_pd_block_id Si_3
_pd_block_diffractogram_id pattern_3

_pd_phase_name Si_3
_cell_length_a 5.431974
_cell_length_b 5.431974
_cell_length_c 5.431974
_cell_angle_alpha 90
_cell_angle_beta 90
_cell_angle_gamma 90
_cell_volume 160.2777
_symmetry_space_group_name_H-M Fd-3mS
loop_
	_symmetry_equiv_pos_as_xyz
	 'x, y, z '
	 '-x, z+1/2, -y+1/2 '
	 '-x+1/4, -y+1/4, -z+1/4 '
	 '-x+1/4, -z+1/4, -y+1/4 '
	 '-x+1/2, -z, y+1/2 '
	 '-x+1/2, y+1/2, -z '
	 '-x-1/4, z-1/4, y+1/4 '
	 '-x-1/4, y+1/4, z-1/4 '
	 '-y, -z+1/2, x+1/2 '
	 '-y, x+1/2, -z+1/2 '
	 '-y+1/4, -x+1/4, -z+1/4 '
	 '-y+1/4, -z+1/4, -x+1/4 '
	 '-y+1/2, -x, z+1/2 '
	 '-y+1/2, z+1/2, -x '
	 '-y-1/4, z+1/4, x-1/4 '
	 '-y-1/4, x-1/4, z+1/4 '
	 '-z, -x+1/2, y+1/2 '
	 '-z, y+1/2, -x+1/2 '
	 '-z+1/4, -x+1/4, -y+1/4 '
	 '-z+1/4, -y+1/4, -x+1/4 '
	 '-z+1/2, -y, x+1/2 '
	 '-z+1/2, x+1/2, -y '
	 '-z-1/4, y-1/4, x+1/4 '
	 '-z-1/4, x+1/4, y-1/4 '
	 'z, y, x '
	 'z, x, y '
	 'z+1/4, -y-1/4, x-1/4 '
	 'z+1/4, x-1/4, -y-1/4 '
	 'z+1/2, -x, -y+1/2 '
	 'z+1/2, -y+1/2, -x '
	 'z-1/4, -x-1/4, y+1/4 '
	 'z-1/4, y+1/4, -x-1/4 '
	 'y, z, x '
	 'y, x, z '
	 'y+1/4, -x-1/4, z-1/4 '
	 'y+1/4, z-1/4, -x-1/4 '
	 'y+1/2, -x+1/2, -z '
	 'y+1/2, -z, -x+1/2 '
	 'y-1/4, -z-1/4, x+1/4 '
	 'y-1/4, x+1/4, -z-1/4 '
	 'x, z, y '
	 '-x, -y+1/2, z+1/2 '
	 'x+1/4, -z-1/4, y-1/4 '
	 'x+1/4, y-1/4, -z-1/4 '
	 'x+1/2, -y, -z+1/2 '
	 'x+1/2, -z+1/2, -y '
	 'x-1/4, -y-1/4, z+1/4 '
	 'x-1/4, z+1/4, -y-1/4 '
	 'x+1/2, y+1/2, z '
	 '-x+1/2, z, -y+1/2 '
	 '-x-1/4, -y-1/4, -z+1/4 '
	 '-x-1/4, -z-1/4, -y+1/4 '
	 '-x, -z+1/2, y+1/2 '
	 '-x, y, -z '
	 '-x+1/4, z+1/4, y+1/4 '
	 '-x+1/4, y-1/4, z-1/4 '
	 '-y+1/2, -z, x+1/2 '
	 '-y+1/2, x, -z+1/2 '
	 '-y-1/4, -x-1/4, -z+1/4 '
	 '-y-1/4, -z-1/4, -x+1/4 '
	 '-y, -x+1/2, z+1/2 '
	 '-y, z, -x '
	 '-y+1/4, z-1/4, x-1/4 '
	 '-y+1/4, x+1/4, z+1/4 '
	 '-z+1/2, -x, y+1/2 '
	 '-z+1/2, y, -x+1/2 '
	 '-z-1/4, -x-1/4, -y+1/4 '
	 '-z-1/4, -y-1/4, -x+1/4 '
	 '-z, -y+1/2, x+1/2 '
	 '-z, x, -y '
	 '-z+1/4, y+1/4, x+1/4 '
	 '-z+1/4, x-1/4, y-1/4 '
	 'z+1/2, y+1/2, x '
	 'z+1/2, x+1/2, y '
	 'z-1/4, -y+1/4, x-1/4 '
	 'z-1/4, x+1/4, -y-1/4 '
	 'z, -x+1/2, -y+1/2 '
	 'z, -y, -x '
	 'z+1/4, -x+1/4, y+1/4 '
	 'z+1/4, y-1/4, -x-1/4 '
	 'y+1/2, z+1/2, x '
	 'y+1/2, x+1/2, z '
	 'y-1/4, -x+1/4, z-1/4 '
	 'y-1/4, z+1/4, -x-1/4 '
	 'y, -x, -z '
	 'y, -z+1/2, -x+1/2 '
	 'y+1/4, -z+1/4, x+1/4 '
	 'y+1/4, x-1/4, -z-1/4 '
	 'x+1/2, z+1/2, y '
	 '-x+1/2, -y, z+1/2 '
	 'x-1/4, -z+1/4, y-1/4 '
	 'x-1/4, y+1/4, -z-1/4 '
	 'x, -y+1/2, -z+1/2 '
	 'x, -z, -y '
	 'x+1/4, -y+1/4, z+1/4 '
	 'x+1/4, z-1/4, -y-1/4 '
	 'x+1/2, y, z+1/2 '
	 '-x+1/2, z+1/2, -y '
	 '-x-1/4, -y+1/4, -z-1/4 '
	 '-x-1/4, -z+1/4, -y-1/4 '
	 '-x, -z, y '
	 '-x, y+1/2, -z+1/2 '
	 '-x+1/4, z-1/4, y-1/4 '
	 '-x+1/4, y+1/4, z+1/4 '
	 '-y+1/2, -z+1/2, x '
	 '-y+1/2, x+1/2, -z '
	 '-y-1/4, -x+1/4, -z-1/4 '
	 '-y-1/4, -z+1/4, -x-1/4 '
	 '-y, -x, z '
	 '-y, z+1/2, -x+1/2 '
	 '-y+1/4, z+1/4, x+1/4 '
	 '-y+1/4, x-1/4, z-1/4 '
	 '-z+1/2, -x+1/2, y '
	 '-z+1/2, y+1/2, -x '
	 '-z-1/4, -x+1/4, -y-1/4 '
	 '-z-1/4, -y+1/4, -x-1/4 '
	 '-z, -y, x '
	 '-z, x+1/2, -y+1/2 '
	 '-z+1/4, y-1/4, x-1/4 '
	 '-z+1/4, x+1/4, y+1/4 '
	 'z+1/2, y, x+1/2 '
	 'z+1/2, x, y+1/2 '
	 'z-1/4, -y-1/4, x+1/4 '
	 'z-1/4, x-1/4, -y+1/4 '
	 'z, -x, -y '
	 'z, -y+1/2, -x+1/2 '
	 'z+1/4, -x-1/4, y-1/4 '
	 'z+1/4, y+1/4, -x+1/4 '
	 'y+1/2, z, x+1/2 '
	 'y+1/2, x, z+1/2 '
	 'y-1/4, -x-1/4, z+1/4 '
	 'y-1/4, z-1/4, -x+1/4 '
	 'y, -x+1/2, -z+1/2 '
	 'y, -z, -x '
	 'y+1/4, -z-1/4, x-1/4 '
	 'y+1/4, x+1/4, -z+1/4 '
	 'x+1/2, z, y+1/2 '
	 '-x+1/2, -y+1/2, z '
	 'x-1/4, -z-1/4, y+1/4 '
	 'x-1/4, y-1/4, -z+1/4 '
	 'x, -y, -z '
	 'x, -z+1/2, -y+1/2 '
	 'x+1/4, -y-1/4, z-1/4 '
	 'x+1/4, z+1/4, -y+1/4 '
	 'x, y+1/2, z+1/2 '
	 '-x, z, -y '
	 '-x+1/4, -y-1/4, -z-1/4 '
	 '-x+1/4, -z-1/4, -y-1/4 '
	 '-x+1/2, -z+1/2, y '
	 '-x+1/2, y, -z+1/2 '
	 '-x-1/4, z+1/4, y-1/4 '
	 '-x-1/4, y-1/4, z+1/4 '
	 '-y, -z, x '
	 '-y, x, -z '
	 '-y+1/4, -x-1/4, -z-1/4 '
	 '-y+1/4, -z-1/4, -x-1/4 '
	 '-y+1/2, -x+1/2, z '
	 '-y+1/2, z, -x+1/2 '
	 '-y-1/4, z-1/4, x+1/4 '
	 '-y-1/4, x+1/4, z-1/4 '
	 '-z, -x, y '
	 '-z, y, -x '
	 '-z+1/4, -x-1/4, -y-1/4 '
	 '-z+1/4, -y-1/4, -x-1/4 '
	 '-z+1/2, -y+1/2, x '
	 '-z+1/2, x, -y+1/2 '
	 '-z-1/4, y+1/4, x-1/4 '
	 '-z-1/4, x-1/4, y+1/4 '
	 'z, y+1/2, x+1/2 '
	 'z, x+1/2, y+1/2 '
	 'z+1/4, -y+1/4, x+1/4 '
	 'z+1/4, x+1/4, -y+1/4 '
	 'z+1/2, -x+1/2, -y '
	 'z+1/2, -y, -x+1/2 '
	 'z-1/4, -x+1/4, y-1/4 '
	 'z-1/4, y-1/4, -x+1/4 '
	 'y, z+1/2, x+1/2 '
	 'y, x+1/2, z+1/2 '
	 'y+1/4, -x+1/4, z+1/4 '
	 'y+1/4, z+1/4, -x+1/4 '
	 'y+1/2, -x, -z+1/2 '
	 'y+1/2, -z+1/2, -x '
	 'y-1/4, -z+1/4, x-1/4 '
	 'y-1/4, x-1/4, -z+1/4 '
	 'x, z+1/2, y+1/2 '
	 '-x, -y, z '
	 'x+1/4, -z+1/4, y+1/4 '
	 'x+1/4, y+1/4, -z+1/4 '
	 'x+1/2, -y+1/2, -z '
	 'x+1/2, -z, -y+1/2 '
	 'x-1/4, -y+1/4, z-1/4 '
	 'x-1/4, z-1/4, -y+1/4 '
loop_
_atom_site_label
_atom_site_type_symbol
_atom_site_site_symmetry_multiplicity
_atom_site_fract_x
_atom_site_fract_y
_atom_site_fract_z
_atom_site_occupancy
_atom_site_B_iso_or_equiv
Si1 Si   8 0 0 0 1 0.4784115

data_phase_Al2O3_4
_pd_block_id Al2O3_4
_pd_block_diffractogram_id pattern_4

_pd_phase_name Al2O3_4
_cell_length_a 4.761482
_cell_length_b 4.761482
_cell_length_c 12.99914
_cell_angle_alpha 90
_cell_angle_beta 90
_cell_angle_gamma 120
_cell_volume 255.2287
_symmetry_space_group_name_H-M R-3cH
loop_
	_symmetry_equiv_pos_as_xyz
	 'x, y, z '
	 '-x, -y, -z '
	 '-x+y, -x, z '
	 '-x+y, y, z+1/2 '
	 '-y, -x, z+1/2 '
	 '-y, x-y, z '
	 'y, -x+y, -z '
	 'y, x, -z+1/2 '
	 'x-y, -y, -z+1/2 '
	 'x-y, x, -z '
	 '-x, -x+y, -z+1/2 '
	 'x, x-y, z+1/2 '
	 'x-1/3, y+1/3, z+1/3 '
	 '-x-1/3, -y+1/3, -z+1/3 '
	 '-x+y-1/3, -x+1/3, z+1/3 '
	 '-x+y-1/3, y+1/3, z-1/6 '
	 '-y-1/3, -x+1/3, z-1/6 '
	 '-y-1/3, x-y+1/3, z+1/3 '
	 'y-1/3, -x+y+1/3, -z+1/3 '
	 'y-1/3, x+1/3, -z-1/6 '
	 'x-y-1/3, -y+1/3, -z-1/6 '
	 'x-y-1/3, x+1/3, -z+1/3 '
	 '-x-1/3, -x+y+1/3, -z-1/6 '
	 'x-1/3, x-y+1/3, z-1/6 '
	 'x+1/3, y-1/3, z-1/3 '
	 '-x+1/3, -y-1/3, -z-1/3 '
	 '-x+y+1/3, -x-1/3, z-1/3 '
	 '-x+y+1/3, y-1/3, z+1/6 '
	 '-y+1/3, -x-1/3, z+1/6 '
	 '-y+1/3, x-y-1/3, z-1/3 '
	 'y+1/3, -x+y-1/3, -z-1/3 '
	 'y+1/3, x-1/3, -z+1/6 '
	 'x-y+1/3, -y-1/3, -z+1/6 '
	 'x-y+1/3, x-1/3, -z-1/3 '
	 '-x+1/3, -x+y-1/3, -z+1/6 '
	 'x+1/3, x-y-1/3, z+1/6 '
loop_
_atom_site_label
_atom_site_type_symbol
_atom_site_site_symmetry_multiplicity
_atom_site_fract_x
_atom_site_fract_y
_atom_site_fract_z
_atom_site_occupancy
_atom_site_B_iso_or_equiv
Al1 Al+3  12 0 0 0.148 1 0.3809322
O1 O-2  18 0.306 0 0.25 1 0.3809322

data_phase_Si_4
_pd_block_id Si_4
_pd_block_diffractogram_id pattern_4

_pd_phase_name Si_4
_cell_length_a 5.432321
_cell_length_b 5.432321
_cell_length_c 5.432321
_cell_angle_alpha 90
_cell_angle_beta 90
_cell_angle_gamma 90
_cell_volume 160.3084
_symmetry_space_group_name_H-M Fd-3mS
loop_
	_symmetry_equiv_pos_as_xyz
	 'x, y, z '
	 '-x, z+1/2, -y+1/2 '
	 '-x+1/4, -y+1/4, -z+1/4 '
	 '-x+1/4, -z+1/4, -y+1/4 '
	 '-x+1/2, -z, y+1/2 '
	 '-x+1/2, y+1/2, -z '
	 '-x-1/4, z-1/4, y+1/4 '
	 '-x-1/4, y+1/4, z-1/4 '
	 '-y, -z+1/2, x+1/2 '
	 '-y, x+1/2, -z+1/2 '
	 '-y+1/4, -x+1/4, -z+1/4 '
	 '-y+1/4, -z+1/4, -x+1/4 '
	 '-y+1/2, -x, z+1/2 '
	 '-y+1/2, z+1/2, -x '
	 '-y-1/4, z+1/4, x-1/4 '
	 '-y-1/4, x-1/4, z+1/4 '
	 '-z, -x+1/2, y+1/2 '
	 '-z, y+1/2, -x+1/2 '
	 '-z+1/4, -x+1/4, -y+1/4 '
	 '-z+1/4, -y+1/4, -x+1/4 '
	 '-z+1/2, -y, x+1/2 '
	 '-z+1/2, x+1/2, -y '
	 '-z-1/4, y-1/4, x+1/4 '
	 '-z-1/4, x+1/4, y-1/4 '
	 'z, y, x '
	 'z, x, y '
	 'z+1/4, -y-1/4, x-1/4 '
	 'z+1/4, x-1/4, -y-1/4 '
	 'z+1/2, -x, -y+1/2 '
	 'z+1/2, -y+1/2, -x '
	 'z-1/4, -x-1/4, y+1/4 '
	 'z-1/4, y+1/4, -x-1/4 '
	 'y, z, x '
	 'y, x, z '
	 'y+1/4, -x-1/4, z-1/4 '
	 'y+1/4, z-1/4, -x-1/4 '
	 'y+1/2, -x+1/2, -z '
	 'y+1/2, -z, -x+1/2 '
	 'y-1/4, -z-1/4, x+1/4 '
	 'y-1/4, x+1/4, -z-1/4 '
	 'x, z, y '
	 '-x, -y+1/2, z+1/2 '
	 'x+1/4, -z-1/4, y-1/4 '
	 'x+1/4, y-1/4, -z-1/4 '
	 'x+1/2, -y, -z+1/2 '
	 'x+1/2, -z+1/2, -y '
	 'x-1/4, -y-1/4, z+1/4 '
	 'x-1/4, z+1/4, -y-1/4 '
	 'x+1/2, y+1/2, z '
	 '-x+1/2, z, -y+1/2 '
	 '-x-1/4, -y-1/4, -z+1/4 '
	 '-x-1/4, -z-1/4, -y+1/4 '
	 '-x, -z+1/2, y+1/2 '
	 '-x, y, -z '
	 '-x+1/4, z+1/4, y+1/4 '
	 '-x+1/4, y-1/4, z-1/4 '
	 '-y+1/2, -z, x+1/2 '
	 '-y+1/2, x, -z+1/2 '
	 '-y-1/4, -x-1/4, -z+1/4 '
	 '-y-1/4, -z-1/4, -x+1/4 '
	 '-y, -x+1/2, z+1/2 '
	 '-y, z, -x '
	 '-y+1/4, z-1/4, x-1/4 '
	 '-y+1/4, x+1/4, z+1/4 '
	 '-z+1/2, -x, y+1/2 '
	 '-z+1/2, y, -x+1/2 '
	 '-z-1/4, -x-1/4, -y+1/4 '
	 '-z-1/4, -y-1/4, -x+1/4 '
	 '-z, -y+1/2, x+1/2 '
	 '-z, x, -y '
	 '-z+1/4, y+1/4, x+1/4 '
	 '-z+1/4, x-1/4, y-1/4 '
	 'z+1/2, y+1/2, x '
	 'z+1/2, x+1/2, y '
	 'z-1/4, -y+1/4, x-1/4 '
	 'z-1/4, x+1/4, -y-1/4 '
	 'z, -x+1/2, -y+1/2 '
	 'z, -y, -x '
	 'z+1/4, -x+1/4, y+1/4 '
	 'z+1/4, y-1/4, -x-1/4 '
	 'y+1/2, z+1/2, x '
	 'y+1/2, x+1/2, z '
	 'y-1/4, -x+1/4, z-1/4 '
	 'y-1/4, z+1/4, -x-1/4 '
	 'y, -x, -z '
	 'y, -z+1/2, -x+1/2 '
	 'y+1/4, -z+1/4, x+1/4 '
	 'y+1/4, x-1/4, -z-1/4 '
	 'x+1/2, z+1/2, y '
	 '-x+1/2, -y, z+1/2 '
	 'x-1/4, -z+1/4, y-1/4 '
	 'x-1/4, y+1/4, -z-1/4 '
	 'x, -y+1/2, -z+1/2 '
	 'x, -z, -y '
	 'x+1/4, -y+1/4, z+1/4 '
	 'x+1/4, z-1/4, -y-1/4 '
	 'x+1/2, y, z+1/2 '
	 '-x+1/2, z+1/2, -y '
	 '-x-1/4, -y+1/4, -z-1/4 '
	 '-x-1/4, -z+1/4, -y-1/4 '
	 '-x, -z, y '
	 '-x, y+1/2, -z+1/2 '
	 '-x+1/4, z-1/4, y-1/4 '
	 '-x+1/4, y+1/4, z+1/4 '
	 '-y+1/2, -z+1/2, x '
	 '-y+1/2, x+1/2, -z '
	 '-y-1/4, -x+1/4, -z-1/4 '
	 '-y-1/4, -z+1/4, -x-1/4 '
	 '-y, -x, z '
	 '-y, z+1/2, -x+1/2 '
	 '-y+1/4, z+1/4, x+1/4 '
	 '-y+1/4, x-1/4, z-1/4 '
	 '-z+1/2, -x+1/2, y '
	 '-z+1/2, y+1/2, -x '
	 '-z-1/4, -x+1/4, -y-1/4 '
	 '-z-1/4, -y+1/4, -x-1/4 '
	 '-z, -y, x '
	 '-z, x+1/2, -y+1/2 '
	 '-z+1/4, y-1/4, x-1/4 '
	 '-z+1/4, x+1/4, y+1/4 '
	 'z+1/2, y, x+1/2 '
	 'z+1/2, x, y+1/2 '
	 'z-1/4, -y-1/4, x+1/4 '
	 'z-1/4, x-1/4, -y+1/4 '
	 'z, -x, -y '
	 'z, -y+1/2, -x+1/2 '
	 'z+1/4, -x-1/4, y-1/4 '
	 'z+1/4, y+1/4, -x+1/4 '
	 'y+1/2, z, x+1/2 '
	 'y+1/2, x, z+1/2 '
	 'y-1/4, -x-1/4, z+1/4 '
	 'y-1/4, z-1/4, -x+1/4 '
	 'y, -x+1/2, -z+1/2 '
	 'y, -z, -x '
	 'y+1/4, -z-1/4, x-1/4 '
	 'y+1/4, x+1/4, -z+1/4 '
	 'x+1/2, z, y+1/2 '
	 '-x+1/2, -y+1/2, z '
	 'x-1/4, -z-1/4, y+1/4 '
	 'x-1/4, y-1/4, -z+1/4 '
	 'x, -y, -z '
	 'x, -z+1/2, -y+1/2 '
	 'x+1/4, -y-1/4, z-1/4 '
	 'x+1/4, z+1/4, -y+1/4 '
	 'x, y+1/2, z+1/2 '
	 '-x, z, -y '
	 '-x+1/4, -y-1/4, -z-1/4 '
	 '-x+1/4, -z-1/4, -y-1/4 '
	 '-x+1/2, -z+1/2, y '
	 '-x+1/2, y, -z+1/2 '
	 '-x-1/4, z+1/4, y-1/4 '
	 '-x-1/4, y-1/4, z+1/4 '
	 '-y, -z, x '
	 '-y, x, -z '
	 '-y+1/4, -x-1/4, -z-1/4 '
	 '-y+1/4, -z-1/4, -x-1/4 '
	 '-y+1/2, -x+1/2, z '
	 '-y+1/2, z, -x+1/2 '
	 '-y-1/4, z-1/4, x+1/4 '
	 '-y-1/4, x+1/4, z-1/4 '
	 '-z, -x, y '
	 '-z, y, -x '
	 '-z+1/4, -x-1/4, -y-1/4 '
	 '-z+1/4, -y-1/4, -x-1/4 '
	 '-z+1/2, -y+1/2, x '
	 '-z+1/2, x, -y+1/2 '
	 '-z-1/4, y+1/4, x-1/4 '
	 '-z-1/4, x-1/4, y+1/4 '
	 'z, y+1/2, x+1/2 '
	 'z, x+1/2, y+1/2 '
	 'z+1/4, -y+1/4, x+1/4 '
	 'z+1/4, x+1/4, -y+1/4 '
	 'z+1/2, -x+1/2, -y '
	 'z+1/2, -y, -x+1/2 '
	 'z-1/4, -x+1/4, y-1/4 '
	 'z-1/4, y-1/4, -x+1/4 '
	 'y, z+1/2, x+1/2 '
	 'y, x+1/2, z+1/2 '
	 'y+1/4, -x+1/4, z+1/4 '
	 'y+1/4, z+1/4, -x+1/4 '
	 'y+1/2, -x, -z+1/2 '
	 'y+1/2, -z+1/2, -x '
	 'y-1/4, -z+1/4, x-1/4 '
	 'y-1/4, x-1/4, -z+1/4 '
	 'x, z+1/2, y+1/2 '
	 '-x, -y, z '
	 'x+1/4, -z+1/4, y+1/4 '
	 'x+1/4, y+1/4, -z+1/4 '
	 'x+1/2, -y+1/2, -z '
	 'x+1/2, -z, -y+1/2 '
	 'x-1/4, -y+1/4, z-1/4 '
	 'x-1/4, z-1/4, -y+1/4 '
loop_
_atom_site_label
_atom_site_type_symbol
_atom_site_site_symmetry_multiplicity
_atom_site_fract_x
_atom_site_fract_y
_atom_site_fract_z
_atom_site_occupancy
_atom_site_B_iso_or_equiv
Si1 Si   8 0 0 0 1 0.5049053

data_phase_Al2O3_5
_pd_block_id Al2O3_5
_pd_block_diffractogram_id pattern_5

_pd_phase_name Al2O3_5
_cell_length_a 4.762074
_cell_length_b 4.762074
_cell_length_c 13.00099
_cell_angle_alpha 90
_cell_angle_beta 90
_cell_angle_gamma 120
_cell_volume 255.3286
_symmetry_space_group_name_H-M R-3cH
loop_
	_symmetry_equiv_pos_as_xyz
	 'x, y, z '
	 '-x, -y, -z '
	 '-x+y, -x, z '
	 '-x+y, y, z+1/2 '
	 '-y, -x, z+1/2 '
	 '-y, x-y, z '
	 'y, -x+y, -z '
	 'y, x, -z+1/2 '
	 'x-y, -y, -z+1/2 '
	 'x-y, x, -z '
	 '-x, -x+y, -z+1/2 '
	 'x, x-y, z+1/2 '
	 'x-1/3, y+1/3, z+1/3 '
	 '-x-1/3, -y+1/3, -z+1/3 '
	 '-x+y-1/3, -x+1/3, z+1/3 '
	 '-x+y-1/3, y+1/3, z-1/6 '
	 '-y-1/3, -x+1/3, z-1/6 '
	 '-y-1/3, x-y+1/3, z+1/3 '
	 'y-1/3, -x+y+1/3, -z+1/3 '
	 'y-1/3, x+1/3, -z-1/6 '
	 'x-y-1/3, -y+1/3, -z-1/6 '
	 'x-y-1/3, x+1/3, -z+1/3 '
	 '-x-1/3, -x+y+1/3, -z-1/6 '
	 'x-1/3, x-y+1/3, z-1/6 '
	 'x+1/3, y-1/3, z-1/3 '
	 '-x+1/3, -y-1/3, -z-1/3 '
	 '-x+y+1/3, -x-1/3, z-1/3 '
	 '-x+y+1/3, y-1/3, z+1/6 '
	 '-y+1/3, -x-1/3, z+1/6 '
	 '-y+1/3, x-y-1/3, z-1/3 '
	 'y+1/3, -x+y-1/3, -z-1/3 '
	 'y+1/3, x-1/3, -z+1/6 '
	 'x-y+1/3, -y-1/3, -z+1/6 '
	 'x-y+1/3, x-1/3, -z-1/3 '
	 '-x+1/3, -x+y-1/3, -z+1/6 '
	 'x+1/3, x-y-1/3, z+1/6 '
loop_
_atom_site_label
_atom_site_type_symbol
_atom_site_site_symmetry_multiplicity
_atom_site_fract_x
_atom_site_fract_y
_atom_site_fract_z
_atom_site_occupancy
_atom_site_B_iso_or_equiv
Al1 Al+3  12 0 0 0.148 1 0.3781048
O1 O-2  18 0.306 0 0.25 1 0.3781048

data_phase_Si_5
_pd_block_id Si_5
_pd_block_diffractogram_id pattern_5

_pd_phase_name Si_5
_cell_length_a 5.432666
_cell_length_b 5.432666
_cell_length_c 5.432666
_cell_angle_alpha 90
_cell_angle_beta 90
_cell_angle_gamma 90
_cell_volume 160.3389
_symmetry_space_group_name_H-M Fd-3mS
loop_
	_symmetry_equiv_pos_as_xyz
	 'x, y, z '
	 '-x, z+1/2, -y+1/2 '
	 '-x+1/4, -y+1/4, -z+1/4 '
	 '-x+1/4, -z+1/4, -y+1/4 '
	 '-x+1/2, -z, y+1/2 '
	 '-x+1/2, y+1/2, -z '
	 '-x-1/4, z-1/4, y+1/4 '
	 '-x-1/4, y+1/4, z-1/4 '
	 '-y, -z+1/2, x+1/2 '
	 '-y, x+1/2, -z+1/2 '
	 '-y+1/4, -x+1/4, -z+1/4 '
	 '-y+1/4, -z+1/4, -x+1/4 '
	 '-y+1/2, -x, z+1/2 '
	 '-y+1/2, z+1/2, -x '
	 '-y-1/4, z+1/4, x-1/4 '
	 '-y-1/4, x-1/4, z+1/4 '
	 '-z, -x+1/2, y+1/2 '
	 '-z, y+1/2, -x+1/2 '
	 '-z+1/4, -x+1/4, -y+1/4 '
	 '-z+1/4, -y+1/4, -x+1/4 '
	 '-z+1/2, -y, x+1/2 '
	 '-z+1/2, x+1/2, -y '
	 '-z-1/4, y-1/4, x+1/4 '
	 '-z-1/4, x+1/4, y-1/4 '
	 'z, y, x '
	 'z, x, y '
	 'z+1/4, -y-1/4, x-1/4 '
	 'z+1/4, x-1/4, -y-1/4 '
	 'z+1/2, -x, -y+1/2 '
	 'z+1/2, -y+1/2, -x '
	 'z-1/4, -x-1/4, y+1/4 '
	 'z-1/4, y+1/4, -x-1/4 '
	 'y, z, x '
	 'y, x, z '
	 'y+1/4, -x-1/4, z-1/4 '
	 'y+1/4, z-1/4, -x-1/4 '
	 'y+1/2, -x+1/2, -z '
	 'y+1/2, -z, -x+1/2 '
	 'y-1/4, -z-1/4, x+1/4 '
	 'y-1/4, x+1/4, -z-1/4 '
	 'x, z, y '
	 '-x, -y+1/2, z+1/2 '
	 'x+1/4, -z-1/4, y-1/4 '
	 'x+1/4, y-1/4, -z-1/4 '
	 'x+1/2, -y, -z+1/2 '
	 'x+1/2, -z+1/2, -y '
	 'x-1/4, -y-1/4, z+1/4 '
	 'x-1/4, z+1/4, -y-1/4 '
	 'x+1/2, y+1/2, z '
	 '-x+1/2, z, -y+1/2 '
	 '-x-1/4, -y-1/4, -z+1/4 '
	 '-x-1/4, -z-1/4, -y+1/4 '
	 '-x, -z+1/2, y+1/2 '
	 '-x, y, -z '
	 '-x+1/4, z+1/4, y+1/4 '
	 '-x+1/4, y-1/4, z-1/4 '
	 '-y+1/2, -z, x+1/2 '
	 '-y+1/2, x, -z+1/2 '
	 '-y-1/4, -x-1/4, -z+1/4 '
	 '-y-1/4, -z-1/4, -x+1/4 '
	 '-y, -x+1/2, z+1/2 '
	 '-y, z, -x '
	 '-y+1/4, z-1/4, x-1/4 '
	 '-y+1/4, x+1/4, z+1/4 '
	 '-z+1/2, -x, y+1/2 '
	 '-z+1/2, y, -x+1/2 '
	 '-z-1/4, -x-1/4, -y+1/4 '
	 '-z-1/4, -y-1/4, -x+1/4 '
	 '-z, -y+1/2, x+1/2 '
	 '-z, x, -y '
	 '-z+1/4, y+1/4, x+1/4 '
	 '-z+1/4, x-1/4, y-1/4 '
	 'z+1/2, y+1/2, x '
	 'z+1/2, x+1/2, y '
	 'z-1/4, -y+1/4, x-1/4 '
	 'z-1/4, x+1/4, -y-1/4 '
	 'z, -x+1/2, -y+1/2 '
	 'z, -y, -x '
	 'z+1/4, -x+1/4, y+1/4 '
	 'z+1/4, y-1/4, -x-1/4 '
	 'y+1/2, z+1/2, x '
	 'y+1/2, x+1/2, z '
	 'y-1/4, -x+1/4, z-1/4 '
	 'y-1/4, z+1/4, -x-1/4 '
	 'y, -x, -z '
	 'y, -z+1/2, -x+1/2 '
	 'y+1/4, -z+1/4, x+1/4 '
	 'y+1/4, x-1/4, -z-1/4 '
	 'x+1/2, z+1/2, y '
	 '-x+1/2, -y, z+1/2 '
	 'x-1/4, -z+1/4, y-1/4 '
	 'x-1/4, y+1/4, -z-1/4 '
	 'x, -y+1/2, -z+1/2 '
	 'x, -z, -y '
	 'x+1/4, -y+1/4, z+1/4 '
	 'x+1/4, z-1/4, -y-1/4 '
	 'x+1/2, y, z+1/2 '
	 '-x+1/2, z+1/2, -y '
	 '-x-1/4, -y+1/4, -z-1/4 '
	 '-x-1/4, -z+1/4, -y-1/4 '
	 '-x, -z, y '
	 '-x, y+1/2, -z+1/2 '
	 '-x+1/4, z-1/4, y-1/4 '
	 '-x+1/4, y+1/4, z+1/4 '
	 '-y+1/2, -z+1/2, x '
	 '-y+1/2, x+1/2, -z '
	 '-y-1/4, -x+1/4, -z-1/4 '
	 '-y-1/4, -z+1/4, -x-1/4 '
	 '-y, -x, z '
	 '-y, z+1/2, -x+1/2 '
	 '-y+1/4, z+1/4, x+1/4 '
	 '-y+1/4, x-1/4, z-1/4 '
	 '-z+1/2, -x+1/2, y '
	 '-z+1/2, y+1/2, -x '
	 '-z-1/4, -x+1/4, -y-1/4 '
	 '-z-1/4, -y+1/4, -x-1/4 '
	 '-z, -y, x '
	 '-z, x+1/2, -y+1/2 '
	 '-z+1/4, y-1/4, x-1/4 '
	 '-z+1/4, x+1/4, y+1/4 '
	 'z+1/2, y, x+1/2 '
	 'z+1/2, x, y+1/2 '
	 'z-1/4, -y-1/4, x+1/4 '
	 'z-1/4, x-1/4, -y+1/4 '
	 'z, -x, -y '
	 'z, -y+1/2, -x+1/2 '
	 'z+1/4, -x-1/4, y-1/4 '
	 'z+1/4, y+1/4, -x+1/4 '
	 'y+1/2, z, x+1/2 '
	 'y+1/2, x, z+1/2 '
	 'y-1/4, -x-1/4, z+1/4 '
	 'y-1/4, z-1/4, -x+1/4 '
	 'y, -x+1/2, -z+1/2 '
	 'y, -z, -x '
	 'y+1/4, -z-1/4, x-1/4 '
	 'y+1/4, x+1/4, -z+1/4 '
	 'x+1/2, z, y+1/2 '
	 '-x+1/2, -y+1/2, z '
	 'x-1/4, -z-1/4, y+1/4 '
	 'x-1/4, y-1/4, -z+1/4 '
	 'x, -y, -z '
	 'x, -z+1/2, -y+1/2 '
	 'x+1/4, -y-1/4, z-1/4 '
	 'x+1/4, z+1/4, -y+1/4 '
	 'x, y+1/2, z+1/2 '
	 '-x, z, -y '
	 '-x+1/4, -y-1/4, -z-1/4 '
	 '-x+1/4, -z-1/4, -y-1/4 '
	 '-x+1/2, -z+1/2, y '
	 '-x+1/2, y, -z+1/2 '
	 '-x-1/4, z+1/4, y-1/4 '
	 '-x-1/4, y-1/4, z+1/4 '
	 '-y, -z, x '
	 '-y, x, -z '
	 '-y+1/4, -x-1/4, -z-1/4 '
	 '-y+1/4, -z-1/4, -x-1/4 '
	 '-y+1/2, -x+1/2, z '
	 '-y+1/2, z, -x+1/2 '
	 '-y-1/4, z-1/4, x+1/4 '
	 '-y-1/4, x+1/4, z-1/4 '
	 '-z, -x, y '
	 '-z, y, -x '
	 '-z+1/4, -x-1/4, -y-1/4 '
	 '-z+1/4, -y-1/4, -x-1/4 '
	 '-z+1/2, -y+1/2, x '
	 '-z+1/2, x, -y+1/2 '
	 '-z-1/4, y+1/4, x-1/4 '
	 '-z-1/4, x-1/4, y+1/4 '
	 'z, y+1/2, x+1/2 '
	 'z, x+1/2, y+1/2 '
	 'z+1/4, -y+1/4, x+1/4 '
	 'z+1/4, x+1/4, -y+1/4 '
	 'z+1/2, -x+1/2, -y '
	 'z+1/2, -y, -x+1/2 '
	 'z-1/4, -x+1/4, y-1/4 '
	 'z-1/4, y-1/4, -x+1/4 '
	 'y, z+1/2, x+1/2 '
	 'y, x+1/2, z+1/2 '
	 'y+1/4, -x+1/4, z+1/4 '
	 'y+1/4, z+1/4, -x+1/4 '
	 'y+1/2, -x, -z+1/2 '
	 'y+1/2, -z+1/2, -x '
	 'y-1/4, -z+1/4, x-1/4 '
	 'y-1/4, x-1/4, -z+1/4 '
	 'x, z+1/2, y+1/2 '
	 '-x, -y, z '
	 'x+1/4, -z+1/4, y+1/4 '
	 'x+1/4, y+1/4, -z+1/4 '
	 'x+1/2, -y+1/2, -z '
	 'x+1/2, -z, -y+1/2 '
	 'x-1/4, -y+1/4, z-1/4 '
	 'x-1/4, z-1/4, -y+1/4 '
loop_
_atom_site_label
_atom_site_type_symbol
_atom_site_site_symmetry_multiplicity
_atom_site_fract_x
_atom_site_fract_y
_atom_site_fract_z
_atom_site_occupancy
_atom_site_B_iso_or_equiv
Si1 Si   8 0 0 0 1 0.511948

data_phase_Al2O3_6
_pd_block_id Al2O3_6
_pd_block_diffractogram_id pattern_6

_pd_phase_name Al2O3_6
_cell_length_a 4.762678
_cell_length_b 4.762678
_cell_length_c 13.00286
_cell_angle_alpha 90
_cell_angle_beta 90
_cell_angle_gamma 120
_cell_volume 255.4302
_symmetry_space_group_name_H-M R-3cH
loop_
	_symmetry_equiv_pos_as_xyz
	 'x, y, z '
	 '-x, -y, -z '
	 '-x+y, -x, z '
	 '-x+y, y, z+1/2 '
	 '-y, -x, z+1/2 '
	 '-y, x-y, z '
	 'y, -x+y, -z '
	 'y, x, -z+1/2 '
	 'x-y, -y, -z+1/2 '
	 'x-y, x, -z '
	 '-x, -x+y, -z+1/2 '
	 'x, x-y, z+1/2 '
	 'x-1/3, y+1/3, z+1/3 '
	 '-x-1/3, -y+1/3, -z+1/3 '
	 '-x+y-1/3, -x+1/3, z+1/3 '
	 '-x+y-1/3, y+1/3, z-1/6 '
	 '-y-1/3, -x+1/3, z-1/6 '
	 '-y-1/3, x-y+1/3, z+1/3 '
	 'y-1/3, -x+y+1/3, -z+1/3 '
	 'y-1/3, x+1/3, -z-1/6 '
	 'x-y-1/3, -y+1/3, -z-1/6 '
	 'x-y-1/3, x+1/3, -z+1/3 '
	 '-x-1/3, -x+y+1/3, -z-1/6 '
	 'x-1/3, x-y+1/3, z-1/6 '
	 'x+1/3, y-1/3, z-1/3 '
	 '-x+1/3, -y-1/3, -z-1/3 '
	 '-x+y+1/3, -x-1/3, z-1/3 '
	 '-x+y+1/3, y-1/3, z+1/6 '
	 '-y+1/3, -x-1/3, z+1/6 '
	 '-y+1/3, x-y-1/3, z-1/3 '
	 'y+1/3, -x+y-1/3, -z-1/3 '
	 'y+1/3, x-1/3, -z+1/6 '
	 'x-y+1/3, -y-1/3, -z+1/6 '
	 'x-y+1/3, x-1/3, -z-1/3 '
	 '-x+1/3, -x+y-1/3, -z+1/6 '
	 'x+1/3, x-y-1/3, z+1/6 '
loop_
_atom_site_label
_atom_site_type_symbol
_atom_site_site_symmetry_multiplicity
_atom_site_fract_x
_atom_site_fract_y
_atom_site_fract_z
_atom_site_occupancy
_atom_site_B_iso_or_equiv
Al1 Al+3  12 0 0 0.148 1 0.4119212
O1 O-2  18 0.306 0 0.25 1 0.4119212

data_phase_Si_6
_pd_block_id Si_6
_pd_block_diffractogram_id pattern_6

_pd_phase_name Si_6
_cell_length_a 5.433034
_cell_length_b 5.433034
_cell_length_c 5.433034
_cell_angle_alpha 90
_cell_angle_beta 90
_cell_angle_gamma 90
_cell_volume 160.3715
_symmetry_space_group_name_H-M Fd-3mS
loop_
	_symmetry_equiv_pos_as_xyz
	 'x, y, z '
	 '-x, z+1/2, -y+1/2 '
	 '-x+1/4, -y+1/4, -z+1/4 '
	 '-x+1/4, -z+1/4, -y+1/4 '
	 '-x+1/2, -z, y+1/2 '
	 '-x+1/2, y+1/2, -z '
	 '-x-1/4, z-1/4, y+1/4 '
	 '-x-1/4, y+1/4, z-1/4 '
	 '-y, -z+1/2, x+1/2 '
	 '-y, x+1/2, -z+1/2 '
	 '-y+1/4, -x+1/4, -z+1/4 '
	 '-y+1/4, -z+1/4, -x+1/4 '
	 '-y+1/2, -x, z+1/2 '
	 '-y+1/2, z+1/2, -x '
	 '-y-1/4, z+1/4, x-1/4 '
	 '-y-1/4, x-1/4, z+1/4 '
	 '-z, -x+1/2, y+1/2 '
	 '-z, y+1/2, -x+1/2 '
	 '-z+1/4, -x+1/4, -y+1/4 '
	 '-z+1/4, -y+1/4, -x+1/4 '
	 '-z+1/2, -y, x+1/2 '
	 '-z+1/2, x+1/2, -y '
	 '-z-1/4, y-1/4, x+1/4 '
	 '-z-1/4, x+1/4, y-1/4 '
	 'z, y, x '
	 'z, x, y '
	 'z+1/4, -y-1/4, x-1/4 '
	 'z+1/4, x-1/4, -y-1/4 '
	 'z+1/2, -x, -y+1/2 '
	 'z+1/2, -y+1/2, -x '
	 'z-1/4, -x-1/4, y+1/4 '
	 'z-1/4, y+1/4, -x-1/4 '
	 'y, z, x '
	 'y, x, z '
	 'y+1/4, -x-1/4, z-1/4 '
	 'y+1/4, z-1/4, -x-1/4 '
	 'y+1/2, -x+1/2, -z '
	 'y+1/2, -z, -x+1/2 '
	 'y-1/4, -z-1/4, x+1/4 '
	 'y-1/4, x+1/4, -z-1/4 '
	 'x, z, y '
	 '-x, -y+1/2, z+1/2 '
	 'x+1/4, -z-1/4, y-1/4 '
	 'x+1/4, y-1/4, -z-1/4 '
	 'x+1/2, -y, -z+1/2 '
	 'x+1/2, -z+1/2, -y '
	 'x-1/4, -y-1/4, z+1/4 '
	 'x-1/4, z+1/4, -y-1/4 '
	 'x+1/2, y+1/2, z '
	 '-x+1/2, z, -y+1/2 '
	 '-x-1/4, -y-1/4, -z+1/4 '
	 '-x-1/4, -z-1/4, -y+1/4 '
	 '-x, -z+1/2, y+1/2 '
	 '-x, y, -z '
	 '-x+1/4, z+1/4, y+1/4 '
	 '-x+1/4, y-1/4, z-1/4 '
	 '-y+1/2, -z, x+1/2 '
	 '-y+1/2, x, -z+1/2 '
	 '-y-1/4, -x-1/4, -z+1/4 '
	 '-y-1/4, -z-1/4, -x+1/4 '
	 '-y, -x+1/2, z+1/2 '
	 '-y, z, -x '
	 '-y+1/4, z-1/4, x-1/4 '
	 '-y+1/4, x+1/4, z+1/4 '
	 '-z+1/2, -x, y+1/2 '
	 '-z+1/2, y, -x+1/2 '
	 '-z-1/4, -x-1/4, -y+1/4 '
	 '-z-1/4, -y-1/4, -x+1/4 '
	 '-z, -y+1/2, x+1/2 '
	 '-z, x, -y '
	 '-z+1/4, y+1/4, x+1/4 '
	 '-z+1/4, x-1/4, y-1/4 '
	 'z+1/2, y+1/2, x '
	 'z+1/2, x+1/2, y '
	 'z-1/4, -y+1/4, x-1/4 '
	 'z-1/4, x+1/4, -y-1/4 '
	 'z, -x+1/2, -y+1/2 '
	 'z, -y, -x '
	 'z+1/4, -x+1/4, y+1/4 '
	 'z+1/4, y-1/4, -x-1/4 '
	 'y+1/2, z+1/2, x '
	 'y+1/2, x+1/2, z '
	 'y-1/4, -x+1/4, z-1/4 '
	 'y-1/4, z+1/4, -x-1/4 '
	 'y, -x, -z '
	 'y, -z+1/2, -x+1/2 '
	 'y+1/4, -z+1/4, x+1/4 '
	 'y+1/4, x-1/4, -z-1/4 '
	 'x+1/2, z+1/2, y '
	 '-x+1/2, -y, z+1/2 '
	 'x-1/4, -z+1/4, y-1/4 '
	 'x-1/4, y+1/4, -z-1/4 '
	 'x, -y+1/2, -z+1/2 '
	 'x, -z, -y '
	 'x+1/4, -y+1/4, z+1/4 '
	 'x+1/4, z-1/4, -y-1/4 '
	 'x+1/2, y, z+1/2 '
	 '-x+1/2, z+1/2, -y '
	 '-x-1/4, -y+1/4, -z-1/4 '
	 '-x-1/4, -z+1/4, -y-1/4 '
	 '-x, -z, y '
	 '-x, y+1/2, -z+1/2 '
	 '-x+1/4, z-1/4, y-1/4 '
	 '-x+1/4, y+1/4, z+1/4 '
	 '-y+1/2, -z+1/2, x '
	 '-y+1/2, x+1/2, -z '
	 '-y-1/4, -x+1/4, -z-1/4 '
	 '-y-1/4, -z+1/4, -x-1/4 '
	 '-y, -x, z '
	 '-y, z+1/2, -x+1/2 '
	 '-y+1/4, z+1/4, x+1/4 '
	 '-y+1/4, x-1/4, z-1/4 '
	 '-z+1/2, -x+1/2, y '
	 '-z+1/2, y+1/2, -x '
	 '-z-1/4, -x+1/4, -y-1/4 '
	 '-z-1/4, -y+1/4, -x-1/4 '
	 '-z, -y, x '
	 '-z, x+1/2, -y+1/2 '
	 '-z+1/4, y-1/4, x-1/4 '
	 '-z+1/4, x+1/4, y+1/4 '
	 'z+1/2, y, x+1/2 '
	 'z+1/2, x, y+1/2 '
	 'z-1/4, -y-1/4, x+1/4 '
	 'z-1/4, x-1/4, -y+1/4 '
	 'z, -x, -y '
	 'z, -y+1/2, -x+1/2 '
	 'z+1/4, -x-1/4, y-1/4 '
	 'z+1/4, y+1/4, -x+1/4 '
	 'y+1/2, z, x+1/2 '
	 'y+1/2, x, z+1/2 '
	 'y-1/4, -x-1/4, z+1/4 '
	 'y-1/4, z-1/4, -x+1/4 '
	 'y, -x+1/2, -z+1/2 '
	 'y, -z, -x '
	 'y+1/4, -z-1/4, x-1/4 '
	 'y+1/4, x+1/4, -z+1/4 '
	 'x+1/2, z, y+1/2 '
	 '-x+1/2, -y+1/2, z '
	 'x-1/4, -z-1/4, y+1/4 '
	 'x-1/4, y-1/4, -z+1/4 '
	 'x, -y, -z '
	 'x, -z+1/2, -y+1/2 '
	 'x+1/4, -y-1/4, z-1/4 '
	 'x+1/4, z+1/4, -y+1/4 '
	 'x, y+1/2, z+1/2 '
	 '-x, z, -y '
	 '-x+1/4, -y-1/4, -z-1/4 '
	 '-x+1/4, -z-1/4, -y-1/4 '
	 '-x+1/2, -z+1/2, y '
	 '-x+1/2, y, -z+1/2 '
	 '-x-1/4, z+1/4, y-1/4 '
	 '-x-1/4, y-1/4, z+1/4 '
	 '-y, -z, x '
	 '-y, x, -z '
	 '-y+1/4, -x-1/4, -z-1/4 '
	 '-y+1/4, -z-1/4, -x-1/4 '
	 '-y+1/2, -x+1/2, z '
	 '-y+1/2, z, -x+1/2 '
	 '-y-1/4, z-1/4, x+1/4 '
	 '-y-1/4, x+1/4, z-1/4 '
	 '-z, -x, y '
	 '-z, y, -x '
	 '-z+1/4, -x-1/4, -y-1/4 '
	 '-z+1/4, -y-1/4, -x-1/4 '
	 '-z+1/2, -y+1/2, x '
	 '-z+1/2, x, -y+1/2 '
	 '-z-1/4, y+1/4, x-1/4 '
	 '-z-1/4, x-1/4, y+1/4 '
	 'z, y+1/2, x+1/2 '
	 'z, x+1/2, y+1/2 '
	 'z+1/4, -y+1/4, x+1/4 '
	 'z+1/4, x+1/4, -y+1/4 '
	 'z+1/2, -x+1/2, -y '
	 'z+1/2, -y, -x+1/2 '
	 'z-1/4, -x+1/4, y-1/4 '
	 'z-1/4, y-1/4, -x+1/4 '
	 'y, z+1/2, x+1/2 '
	 'y, x+1/2, z+1/2 '
	 'y+1/4, -x+1/4, z+1/4 '
	 'y+1/4, z+1/4, -x+1/4 '
	 'y+1/2, -x, -z+1/2 '
	 'y+1/2, -z+1/2, -x '
	 'y-1/4, -z+1/4, x-1/4 '
	 'y-1/4, x-1/4, -z+1/4 '
	 'x, z+1/2, y+1/2 '
	 '-x, -y, z '
	 'x+1/4, -z+1/4, y+1/4 '
	 'x+1/4, y+1/4, -z+1/4 '
	 'x+1/2, -y+1/2, -z '
	 'x+1/2, -z, -y+1/2 '
	 'x-1/4, -y+1/4, z-1/4 '
	 'x-1/4, z-1/4, -y+1/4 '
loop_
_atom_site_label
_atom_site_type_symbol
_atom_site_site_symmetry_multiplicity
_atom_site_fract_x
_atom_site_fract_y
_atom_site_fract_z
_atom_site_occupancy
_atom_site_B_iso_or_equiv
Si1 Si   8 0 0 0 1 0.5645323

data_phase_Al2O3_7
_pd_block_id Al2O3_7
_pd_block_diffractogram_id pattern_7

_pd_phase_name Al2O3_7
_cell_length_a 4.763309
_cell_length_b 4.763309
_cell_length_c 13.0047
_cell_angle_alpha 90
_cell_angle_beta 90
_cell_angle_gamma 120
_cell_volume 255.5339
_symmetry_space_group_name_H-M R-3cH
loop_
	_symmetry_equiv_pos_as_xyz
	 'x, y, z '
	 '-x, -y, -z '
	 '-x+y, -x, z '
	 '-x+y, y, z+1/2 '
	 '-y, -x, z+1/2 '
	 '-y, x-y, z '
	 'y, -x+y, -z '
	 'y, x, -z+1/2 '
	 'x-y, -y, -z+1/2 '
	 'x-y, x, -z '
	 '-x, -x+y, -z+1/2 '
	 'x, x-y, z+1/2 '
	 'x-1/3, y+1/3, z+1/3 '
	 '-x-1/3, -y+1/3, -z+1/3 '
	 '-x+y-1/3, -x+1/3, z+1/3 '
	 '-x+y-1/3, y+1/3, z-1/6 '
	 '-y-1/3, -x+1/3, z-1/6 '
	 '-y-1/3, x-y+1/3, z+1/3 '
	 'y-1/3, -x+y+1/3, -z+1/3 '
	 'y-1/3, x+1/3, -z-1/6 '
	 'x-y-1/3, -y+1/3, -z-1/6 '
	 'x-y-1/3, x+1/3, -z+1/3 '
	 '-x-1/3, -x+y+1/3, -z-1/6 '
	 'x-1/3, x-y+1/3, z-1/6 '
	 'x+1/3, y-1/3, z-1/3 '
	 '-x+1/3, -y-1/3, -z-1/3 '
	 '-x+y+1/3, -x-1/3, z-1/3 '
	 '-x+y+1/3, y-1/3, z+1/6 '
	 '-y+1/3, -x-1/3, z+1/6 '
	 '-y+1/3, x-y-1/3, z-1/3 '
	 'y+1/3, -x+y-1/3, -z-1/3 '
	 'y+1/3, x-1/3, -z+1/6 '
	 'x-y+1/3, -y-1/3, -z+1/6 '
	 'x-y+1/3, x-1/3, -z-1/3 '
	 '-x+1/3, -x+y-1/3, -z+1/6 '
	 'x+1/3, x-y-1/3, z+1/6 '
loop_
_atom_site_label
_atom_site_type_symbol
_atom_site_site_symmetry_multiplicity
_atom_site_fract_x
_atom_site_fract_y
_atom_site_fract_z
_atom_site_occupancy
_atom_site_B_iso_or_equiv
Al1 Al+3  12 0 0 0.148 1 0.4111472
O1 O-2  18 0.306 0 0.25 1 0.4111472

data_phase_Si_7
_pd_block_id Si_7
_pd_block_diffractogram_id pattern_7

_pd_phase_name Si_7
_cell_length_a 5.433385
_cell_length_b 5.433385
_cell_length_c 5.433385
_cell_angle_alpha 90
_cell_angle_beta 90
_cell_angle_gamma 90
_cell_volume 160.4026
_symmetry_space_group_name_H-M Fd-3mS
loop_
	_symmetry_equiv_pos_as_xyz
	 'x, y, z '
	 '-x, z+1/2, -y+1/2 '
	 '-x+1/4, -y+1/4, -z+1/4 '
	 '-x+1/4, -z+1/4, -y+1/4 '
	 '-x+1/2, -z, y+1/2 '
	 '-x+1/2, y+1/2, -z '
	 '-x-1/4, z-1/4, y+1/4 '
	 '-x-1/4, y+1/4, z-1/4 '
	 '-y, -z+1/2, x+1/2 '
	 '-y, x+1/2, -z+1/2 '
	 '-y+1/4, -x+1/4, -z+1/4 '
	 '-y+1/4, -z+1/4, -x+1/4 '
	 '-y+1/2, -x, z+1/2 '
	 '-y+1/2, z+1/2, -x '
	 '-y-1/4, z+1/4, x-1/4 '
	 '-y-1/4, x-1/4, z+1/4 '
	 '-z, -x+1/2, y+1/2 '
	 '-z, y+1/2, -x+1/2 '
	 '-z+1/4, -x+1/4, -y+1/4 '
	 '-z+1/4, -y+1/4, -x+1/4 '
	 '-z+1/2, -y, x+1/2 '
	 '-z+1/2, x+1/2, -y '
	 '-z-1/4, y-1/4, x+1/4 '
	 '-z-1/4, x+1/4, y-1/4 '
	 'z, y, x '
	 'z, x, y '
	 'z+1/4, -y-1/4, x-1/4 '
	 'z+1/4, x-1/4, -y-1/4 '
	 'z+1/2, -x, -y+1/2 '
	 'z+1/2, -y+1/2, -x '
	 'z-1/4, -x-1/4, y+1/4 '
	 'z-1/4, y+1/4, -x-1/4 '
	 'y, z, x '
	 'y, x, z '
	 'y+1/4, -x-1/4, z-1/4 '
	 'y+1/4, z-1/4, -x-1/4 '
	 'y+1/2, -x+1/2, -z '
	 'y+1/2, -z, -x+1/2 '
	 'y-1/4, -z-1/4, x+1/4 '
	 'y-1/4, x+1/4, -z-1/4 '
	 'x, z, y '
	 '-x, -y+1/2, z+1/2 '
	 'x+1/4, -z-1/4, y-1/4 '
	 'x+1/4, y-1/4, -z-1/4 '
	 'x+1/2, -y, -z+1/2 '
	 'x+1/2, -z+1/2, -y '
	 'x-1/4, -y-1/4, z+1/4 '
	 'x-1/4, z+1/4, -y-1/4 '
	 'x+1/2, y+1/2, z '
	 '-x+1/2, z, -y+1/2 '
	 '-x-1/4, -y-1/4, -z+1/4 '
	 '-x-1/4, -z-1/4, -y+1/4 '
	 '-x, -z+1/2, y+1/2 '
	 '-x, y, -z '
	 '-x+1/4, z+1/4, y+1/4 '
	 '-x+1/4, y-1/4, z-1/4 '
	 '-y+1/2, -z, x+1/2 '
	 '-y+1/2, x, -z+1/2 '
	 '-y-1/4, -x-1/4, -z+1/4 '
	 '-y-1/4, -z-1/4, -x+1/4 '
	 '-y, -x+1/2, z+1/2 '
	 '-y, z, -x '
	 '-y+1/4, z-1/4, x-1/4 '
	 '-y+1/4, x+1/4, z+1/4 '
	 '-z+1/2, -x, y+1/2 '
	 '-z+1/2, y, -x+1/2 '
	 '-z-1/4, -x-1/4, -y+1/4 '
	 '-z-1/4, -y-1/4, -x+1/4 '
	 '-z, -y+1/2, x+1/2 '
	 '-z, x, -y '
	 '-z+1/4, y+1/4, x+1/4 '
	 '-z+1/4, x-1/4, y-1/4 '
	 'z+1/2, y+1/2, x '
	 'z+1/2, x+1/2, y '
	 'z-1/4, -y+1/4, x-1/4 '
	 'z-1/4, x+1/4, -y-1/4 '
	 'z, -x+1/2, -y+1/2 '
	 'z, -y, -x '
	 'z+1/4, -x+1/4, y+1/4 '
	 'z+1/4, y-1/4, -x-1/4 '
	 'y+1/2, z+1/2, x '
	 'y+1/2, x+1/2, z '
	 'y-1/4, -x+1/4, z-1/4 '
	 'y-1/4, z+1/4, -x-1/4 '
	 'y, -x, -z '
	 'y, -z+1/2, -x+1/2 '
	 'y+1/4, -z+1/4, x+1/4 '
	 'y+1/4, x-1/4, -z-1/4 '
	 'x+1/2, z+1/2, y '
	 '-x+1/2, -y, z+1/2 '
	 'x-1/4, -z+1/4, y-1/4 '
	 'x-1/4, y+1/4, -z-1/4 '
	 'x, -y+1/2, -z+1/2 '
	 'x, -z, -y '
	 'x+1/4, -y+1/4, z+1/4 '
	 'x+1/4, z-1/4, -y-1/4 '
	 'x+1/2, y, z+1/2 '
	 '-x+1/2, z+1/2, -y '
	 '-x-1/4, -y+1/4, -z-1/4 '
	 '-x-1/4, -z+1/4, -y-1/4 '
	 '-x, -z, y '
	 '-x, y+1/2, -z+1/2 '
	 '-x+1/4, z-1/4, y-1/4 '
	 '-x+1/4, y+1/4, z+1/4 '
	 '-y+1/2, -z+1/2, x '
	 '-y+1/2, x+1/2, -z '
	 '-y-1/4, -x+1/4, -z-1/4 '
	 '-y-1/4, -z+1/4, -x-1/4 '
	 '-y, -x, z '
	 '-y, z+1/2, -x+1/2 '
	 '-y+1/4, z+1/4, x+1/4 '
	 '-y+1/4, x-1/4, z-1/4 '
	 '-z+1/2, -x+1/2, y '
	 '-z+1/2, y+1/2, -x '
	 '-z-1/4, -x+1/4, -y-1/4 '
	 '-z-1/4, -y+1/4, -x-1/4 '
	 '-z, -y, x '
	 '-z, x+1/2, -y+1/2 '
	 '-z+1/4, y-1/4, x-1/4 '
	 '-z+1/4, x+1/4, y+1/4 '
	 'z+1/2, y, x+1/2 '
	 'z+1/2, x, y+1/2 '
	 'z-1/4, -y-1/4, x+1/4 '
	 'z-1/4, x-1/4, -y+1/4 '
	 'z, -x, -y '
	 'z, -y+1/2, -x+1/2 '
	 'z+1/4, -x-1/4, y-1/4 '
	 'z+1/4, y+1/4, -x+1/4 '
	 'y+1/2, z, x+1/2 '
	 'y+1/2, x, z+1/2 '
	 'y-1/4, -x-1/4, z+1/4 '
	 'y-1/4, z-1/4, -x+1/4 '
	 'y, -x+1/2, -z+1/2 '
	 'y, -z, -x '
	 'y+1/4, -z-1/4, x-1/4 '
	 'y+1/4, x+1/4, -z+1/4 '
	 'x+1/2, z, y+1/2 '
	 '-x+1/2, -y+1/2, z '
	 'x-1/4, -z-1/4, y+1/4 '
	 'x-1/4, y-1/4, -z+1/4 '
	 'x, -y, -z '
	 'x, -z+1/2, -y+1/2 '
	 'x+1/4, -y-1/4, z-1/4 '
	 'x+1/4, z+1/4, -y+1/4 '
	 'x, y+1/2, z+1/2 '
	 '-x, z, -y '
	 '-x+1/4, -y-1/4, -z-1/4 '
	 '-x+1/4, -z-1/4, -y-1/4 '
	 '-x+1/2, -z+1/2, y '
	 '-x+1/2, y, -z+1/2 '
	 '-x-1/4, z+1/4, y-1/4 '
	 '-x-1/4, y-1/4, z+1/4 '
	 '-y, -z, x '
	 '-y, x, -z '
	 '-y+1/4, -x-1/4, -z-1/4 '
	 '-y+1/4, -z-1/4, -x-1/4 '
	 '-y+1/2, -x+1/2, z '
	 '-y+1/2, z, -x+1/2 '
	 '-y-1/4, z-1/4, x+1/4 '
	 '-y-1/4, x+1/4, z-1/4 '
	 '-z, -x, y '
	 '-z, y, -x '
	 '-z+1/4, -x-1/4, -y-1/4 '
	 '-z+1/4, -y-1/4, -x-1/4 '
	 '-z+1/2, -y+1/2, x '
	 '-z+1/2, x, -y+1/2 '
	 '-z-1/4, y+1/4, x-1/4 '
	 '-z-1/4, x-1/4, y+1/4 '
	 'z, y+1/2, x+1/2 '
	 'z, x+1/2, y+1/2 '
	 'z+1/4, -y+1/4, x+1/4 '
	 'z+1/4, x+1/4, -y+1/4 '
	 'z+1/2, -x+1/2, -y '
	 'z+1/2, -y, -x+1/2 '
	 'z-1/4, -x+1/4, y-1/4 '
	 'z-1/4, y-1/4, -x+1/4 '
	 'y, z+1/2, x+1/2 '
	 'y, x+1/2, z+1/2 '
	 'y+1/4, -x+1/4, z+1/4 '
	 'y+1/4, z+1/4, -x+1/4 '
	 'y+1/2, -x, -z+1/2 '
	 'y+1/2, -z+1/2, -x '
	 'y-1/4, -z+1/4, x-1/4 '
	 'y-1/4, x-1/4, -z+1/4 '
	 'x, z+1/2, y+1/2 '
	 '-x, -y, z '
	 'x+1/4, -z+1/4, y+1/4 '
	 'x+1/4, y+1/4, -z+1/4 '
	 'x+1/2, -y+1/2, -z '
	 'x+1/2, -z, -y+1/2 '
	 'x-1/4, -y+1/4, z-1/4 '
	 'x-1/4, z-1/4, -y+1/4 '
loop_
_atom_site_label
_atom_site_type_symbol
_atom_site_site_symmetry_multiplicity
_atom_site_fract_x
_atom_site_fract_y
_atom_site_fract_z
_atom_site_occupancy
_atom_site_B_iso_or_equiv
Si1 Si   8 0 0 0 1 0.610333

data_phase_Al2O3_8
_pd_block_id Al2O3_8
_pd_block_diffractogram_id pattern_8

_pd_phase_name Al2O3_8
_cell_length_a 4.763951
_cell_length_b 4.763951
_cell_length_c 13.00666
_cell_angle_alpha 90
_cell_angle_beta 90
_cell_angle_gamma 120
_cell_volume 255.6413
_symmetry_space_group_name_H-M R-3cH
loop_
	_symmetry_equiv_pos_as_xyz
	 'x, y, z '
	 '-x, -y, -z '
	 '-x+y, -x, z '
	 '-x+y, y, z+1/2 '
	 '-y, -x, z+1/2 '
	 '-y, x-y, z '
	 'y, -x+y, -z '
	 'y, x, -z+1/2 '
	 'x-y, -y, -z+1/2 '
	 'x-y, x, -z '
	 '-x, -x+y, -z+1/2 '
	 'x, x-y, z+1/2 '
	 'x-1/3, y+1/3, z+1/3 '
	 '-x-1/3, -y+1/3, -z+1/3 '
	 '-x+y-1/3, -x+1/3, z+1/3 '
	 '-x+y-1/3, y+1/3, z-1/6 '
	 '-y-1/3, -x+1/3, z-1/6 '
	 '-y-1/3, x-y+1/3, z+1/3 '
	 'y-1/3, -x+y+1/3, -z+1/3 '
	 'y-1/3, x+1/3, -z-1/6 '
	 'x-y-1/3, -y+1/3, -z-1/6 '
	 'x-y-1/3, x+1/3, -z+1/3 '
	 '-x-1/3, -x+y+1/3, -z-1/6 '
	 'x-1/3, x-y+1/3, z-1/6 '
	 'x+1/3, y-1/3, z-1/3 '
	 '-x+1/3, -y-1/3, -z-1/3 '
	 '-x+y+1/3, -x-1/3, z-1/3 '
	 '-x+y+1/3, y-1/3, z+1/6 '
	 '-y+1/3, -x-1/3, z+1/6 '
	 '-y+1/3, x-y-1/3, z-1/3 '
	 'y+1/3, -x+y-1/3, -z-1/3 '
	 'y+1/3, x-1/3, -z+1/6 '
	 'x-y+1/3, -y-1/3, -z+1/6 '
	 'x-y+1/3, x-1/3, -z-1/3 '
	 '-x+1/3, -x+y-1/3, -z+1/6 '
	 'x+1/3, x-y-1/3, z+1/6 '
loop_
_atom_site_label
_atom_site_type_symbol
_atom_site_site_symmetry_multiplicity
_atom_site_fract_x
_atom_site_fract_y
_atom_site_fract_z
_atom_site_occupancy
_atom_site_B_iso_or_equiv
Al1 Al+3  12 0 0 0.148 1 0.4098972
O1 O-2  18 0.306 0 0.25 1 0.4098972

data_phase_Si_8
_pd_block_id Si_8
_pd_block_diffractogram_id pattern_8

_pd_phase_name Si_8
_cell_length_a 5.433769
_cell_length_b 5.433769
_cell_length_c 5.433769
_cell_angle_alpha 90
_cell_angle_beta 90
_cell_angle_gamma 90
_cell_volume 160.4366
_symmetry_space_group_name_H-M Fd-3mS
loop_
	_symmetry_equiv_pos_as_xyz
	 'x, y, z '
	 '-x, z+1/2, -y+1/2 '
	 '-x+1/4, -y+1/4, -z+1/4 '
	 '-x+1/4, -z+1/4, -y+1/4 '
	 '-x+1/2, -z, y+1/2 '
	 '-x+1/2, y+1/2, -z '
	 '-x-1/4, z-1/4, y+1/4 '
	 '-x-1/4, y+1/4, z-1/4 '
	 '-y, -z+1/2, x+1/2 '
	 '-y, x+1/2, -z+1/2 '
	 '-y+1/4, -x+1/4, -z+1/4 '
	 '-y+1/4, -z+1/4, -x+1/4 '
	 '-y+1/2, -x, z+1/2 '
	 '-y+1/2, z+1/2, -x '
	 '-y-1/4, z+1/4, x-1/4 '
	 '-y-1/4, x-1/4, z+1/4 '
	 '-z, -x+1/2, y+1/2 '
	 '-z, y+1/2, -x+1/2 '
	 '-z+1/4, -x+1/4, -y+1/4 '
	 '-z+1/4, -y+1/4, -x+1/4 '
	 '-z+1/2, -y, x+1/2 '
	 '-z+1/2, x+1/2, -y '
	 '-z-1/4, y-1/4, x+1/4 '
	 '-z-1/4, x+1/4, y-1/4 '
	 'z, y, x '
	 'z, x, y '
	 'z+1/4, -y-1/4, x-1/4 '
	 'z+1/4, x-1/4, -y-1/4 '
	 'z+1/2, -x, -y+1/2 '
	 'z+1/2, -y+1/2, -x '
	 'z-1/4, -x-1/4, y+1/4 '
	 'z-1/4, y+1/4, -x-1/4 '
	 'y, z, x '
	 'y, x, z '
	 'y+1/4, -x-1/4, z-1/4 '
	 'y+1/4, z-1/4, -x-1/4 '
	 'y+1/2, -x+1/2, -z '
	 'y+1/2, -z, -x+1/2 '
	 'y-1/4, -z-1/4, x+1/4 '
	 'y-1/4, x+1/4, -z-1/4 '
	 'x, z, y '
	 '-x, -y+1/2, z+1/2 '
	 'x+1/4, -z-1/4, y-1/4 '
	 'x+1/4, y-1/4, -z-1/4 '
	 'x+1/2, -y, -z+1/2 '
	 'x+1/2, -z+1/2, -y '
	 'x-1/4, -y-1/4, z+1/4 '
	 'x-1/4, z+1/4, -y-1/4 '
	 'x+1/2, y+1/2, z '
	 '-x+1/2, z, -y+1/2 '
	 '-x-1/4, -y-1/4, -z+1/4 '
	 '-x-1/4, -z-1/4, -y+1/4 '
	 '-x, -z+1/2, y+1/2 '
	 '-x, y, -z '
	 '-x+1/4, z+1/4, y+1/4 '
	 '-x+1/4, y-1/4, z-1/4 '
	 '-y+1/2, -z, x+1/2 '
	 '-y+1/2, x, -z+1/2 '
	 '-y-1/4, -x-1/4, -z+1/4 '
	 '-y-1/4, -z-1/4, -x+1/4 '
	 '-y, -x+1/2, z+1/2 '
	 '-y, z, -x '
	 '-y+1/4, z-1/4, x-1/4 '
	 '-y+1/4, x+1/4, z+1/4 '
	 '-z+1/2, -x, y+1/2 '
	 '-z+1/2, y, -x+1/2 '
	 '-z-1/4, -x-1/4, -y+1/4 '
	 '-z-1/4, -y-1/4, -x+1/4 '
	 '-z, -y+1/2, x+1/2 '
	 '-z, x, -y '
	 '-z+1/4, y+1/4, x+1/4 '
	 '-z+1/4, x-1/4, y-1/4 '
	 'z+1/2, y+1/2, x '
	 'z+1/2, x+1/2, y '
	 'z-1/4, -y+1/4, x-1/4 '
	 'z-1/4, x+1/4, -y-1/4 '
	 'z, -x+1/2, -y+1/2 '
	 'z, -y, -x '
	 'z+1/4, -x+1/4, y+1/4 '
	 'z+1/4, y-1/4, -x-1/4 '
	 'y+1/2, z+1/2, x '
	 'y+1/2, x+1/2, z '
	 'y-1/4, -x+1/4, z-1/4 '
	 'y-1/4, z+1/4, -x-1/4 '
	 'y, -x, -z '
	 'y, -z+1/2, -x+1/2 '
	 'y+1/4, -z+1/4, x+1/4 '
	 'y+1/4, x-1/4, -z-1/4 '
	 'x+1/2, z+1/2, y '
	 '-x+1/2, -y, z+1/2 '
	 'x-1/4, -z+1/4, y-1/4 '
	 'x-1/4, y+1/4, -z-1/4 '
	 'x, -y+1/2, -z+1/2 '
	 'x, -z, -y '
	 'x+1/4, -y+1/4, z+1/4 '
	 'x+1/4, z-1/4, -y-1/4 '
	 'x+1/2, y, z+1/2 '
	 '-x+1/2, z+1/2, -y '
	 '-x-1/4, -y+1/4, -z-1/4 '
	 '-x-1/4, -z+1/4, -y-1/4 '
	 '-x, -z, y '
	 '-x, y+1/2, -z+1/2 '
	 '-x+1/4, z-1/4, y-1/4 '
	 '-x+1/4, y+1/4, z+1/4 '
	 '-y+1/2, -z+1/2, x '
	 '-y+1/2, x+1/2, -z '
	 '-y-1/4, -x+1/4, -z-1/4 '
	 '-y-1/4, -z+1/4, -x-1/4 '
	 '-y, -x, z '
	 '-y, z+1/2, -x+1/2 '
	 '-y+1/4, z+1/4, x+1/4 '
	 '-y+1/4, x-1/4, z-1/4 '
	 '-z+1/2, -x+1/2, y '
	 '-z+1/2, y+1/2, -x '
	 '-z-1/4, -x+1/4, -y-1/4 '
	 '-z-1/4, -y+1/4, -x-1/4 '
	 '-z, -y, x '
	 '-z, x+1/2, -y+1/2 '
	 '-z+1/4, y-1/4, x-1/4 '
	 '-z+1/4, x+1/4, y+1/4 '
	 'z+1/2, y, x+1/2 '
	 'z+1/2, x, y+1/2 '
	 'z-1/4, -y-1/4, x+1/4 '
	 'z-1/4, x-1/4, -y+1/4 '
	 'z, -x, -y '
	 'z, -y+1/2, -x+1/2 '
	 'z+1/4, -x-1/4, y-1/4 '
	 'z+1/4, y+1/4, -x+1/4 '
	 'y+1/2, z, x+1/2 '
	 'y+1/2, x, z+1/2 '
	 'y-1/4, -x-1/4, z+1/4 '
	 'y-1/4, z-1/4, -x+1/4 '
	 'y, -x+1/2, -z+1/2 '
	 'y, -z, -x '
	 'y+1/4, -z-1/4, x-1/4 '
	 'y+1/4, x+1/4, -z+1/4 '
	 'x+1/2, z, y+1/2 '
	 '-x+1/2, -y+1/2, z '
	 'x-1/4, -z-1/4, y+1/4 '
	 'x-1/4, y-1/4, -z+1/4 '
	 'x, -y, -z '
	 'x, -z+1/2, -y+1/2 '
	 'x+1/4, -y-1/4, z-1/4 '
	 'x+1/4, z+1/4, -y+1/4 '
	 'x, y+1/2, z+1/2 '
	 '-x, z, -y '
	 '-x+1/4, -y-1/4, -z-1/4 '
	 '-x+1/4, -z-1/4, -y-1/4 '
	 '-x+1/2, -z+1/2, y '
	 '-x+1/2, y, -z+1/2 '
	 '-x-1/4, z+1/4, y-1/4 '
	 '-x-1/4, y-1/4, z+1/4 '
	 '-y, -z, x '
	 '-y, x, -z '
	 '-y+1/4, -x-1/4, -z-1/4 '
	 '-y+1/4, -z-1/4, -x-1/4 '
	 '-y+1/2, -x+1/2, z '
	 '-y+1/2, z, -x+1/2 '
	 '-y-1/4, z-1/4, x+1/4 '
	 '-y-1/4, x+1/4, z-1/4 '
	 '-z, -x, y '
	 '-z, y, -x '
	 '-z+1/4, -x-1/4, -y-1/4 '
	 '-z+1/4, -y-1/4, -x-1/4 '
	 '-z+1/2, -y+1/2, x '
	 '-z+1/2, x, -y+1/2 '
	 '-z-1/4, y+1/4, x-1/4 '
	 '-z-1/4, x-1/4, y+1/4 '
	 'z, y+1/2, x+1/2 '
	 'z, x+1/2, y+1/2 '
	 'z+1/4, -y+1/4, x+1/4 '
	 'z+1/4, x+1/4, -y+1/4 '
	 'z+1/2, -x+1/2, -y '
	 'z+1/2, -y, -x+1/2 '
	 'z-1/4, -x+1/4, y-1/4 '
	 'z-1/4, y-1/4, -x+1/4 '
	 'y, z+1/2, x+1/2 '
	 'y, x+1/2, z+1/2 '
	 'y+1/4, -x+1/4, z+1/4 '
	 'y+1/4, z+1/4, -x+1/4 '
	 'y+1/2, -x, -z+1/2 '
	 'y+1/2, -z+1/2, -x '
	 'y-1/4, -z+1/4, x-1/4 '
	 'y-1/4, x-1/4, -z+1/4 '
	 'x, z+1/2, y+1/2 '
	 '-x, -y, z '
	 'x+1/4, -z+1/4, y+1/4 '
	 'x+1/4, y+1/4, -z+1/4 '
	 'x+1/2, -y+1/2, -z '
	 'x+1/2, -z, -y+1/2 '
	 'x-1/4, -y+1/4, z-1/4 '
	 'x-1/4, z-1/4, -y+1/4 '
loop_
_atom_site_label
_atom_site_type_symbol
_atom_site_site_symmetry_multiplicity
_atom_site_fract_x
_atom_site_fract_y
_atom_site_fract_z
_atom_site_occupancy
_atom_site_B_iso_or_equiv
Si1 Si   8 0 0 0 1 0.5996166

data_phase_Al2O3_9
_pd_block_id Al2O3_9
_pd_block_diffractogram_id pattern_9

_pd_phase_name Al2O3_9
_cell_length_a 4.764584
_cell_length_b 4.764584
_cell_length_c 13.00858
_cell_angle_alpha 90
_cell_angle_beta 90
_cell_angle_gamma 120
_cell_volume 255.747
_symmetry_space_group_name_H-M R-3cH
loop_
	_symmetry_equiv_pos_as_xyz
	 'x, y, z '
	 '-x, -y, -z '
	 '-x+y, -x, z '
	 '-x+y, y, z+1/2 '
	 '-y, -x, z+1/2 '
	 '-y, x-y, z '
	 'y, -x+y, -z '
	 'y, x, -z+1/2 '
	 'x-y, -y, -z+1/2 '
	 'x-y, x, -z '
	 '-x, -x+y, -z+1/2 '
	 'x, x-y, z+1/2 '
	 'x-1/3, y+1/3, z+1/3 '
	 '-x-1/3, -y+1/3, -z+1/3 '
	 '-x+y-1/3, -x+1/3, z+1/3 '
	 '-x+y-1/3, y+1/3, z-1/6 '
	 '-y-1/3, -x+1/3, z-1/6 '
	 '-y-1/3, x-y+1/3, z+1/3 '
	 'y-1/3, -x+y+1/3, -z+1/3 '
	 'y-1/3, x+1/3, -z-1/6 '
	 'x-y-1/3, -y+1/3, -z-1/6 '
	 'x-y-1/3, x+1/3, -z+1/3 '
	 '-x-1/3, -x+y+1/3, -z-1/6 '
	 'x-1/3, x-y+1/3, z-1/6 '
	 'x+1/3, y-1/3, z-1/3 '
	 '-x+1/3, -y-1/3, -z-1/3 '
	 '-x+y+1/3, -x-1/3, z-1/3 '
	 '-x+y+1/3, y-1/3, z+1/6 '
	 '-y+1/3, -x-1/3, z+1/6 '
	 '-y+1/3, x-y-1/3, z-1/3 '
	 'y+1/3, -x+y-1/3, -z-1/3 '
	 'y+1/3, x-1/3, -z+1/6 '
	 'x-y+1/3, -y-1/3, -z+1/6 '
	 'x-y+1/3, x-1/3, -z-1/3 '
	 '-x+1/3, -x+y-1/3, -z+1/6 '
	 'x+1/3, x-y-1/3, z+1/6 '
loop_
_atom_site_label
_atom_site_type_symbol
_atom_site_site_symmetry_multiplicity
_atom_site_fract_x
_atom_site_fract_y
_atom_site_fract_z
_atom_site_occupancy
_atom_site_B_iso_or_equiv
Al1 Al+3  12 0 0 0.148 1 0.3971259
O1 O-2  18 0.306 0 0.25 1 0.3971259

data_phase_Si_9
_pd_block_id Si_9
_pd_block_diffractogram_id pattern_9

_pd_phase_name Si_9
_cell_length_a 5.434133
_cell_length_b 5.434133
_cell_length_c 5.434133
_cell_angle_alpha 90
_cell_angle_beta 90
_cell_angle_gamma 90
_cell_volume 160.4689
_symmetry_space_group_name_H-M Fd-3mS
loop_
	_symmetry_equiv_pos_as_xyz
	 'x, y, z '
	 '-x, z+1/2, -y+1/2 '
	 '-x+1/4, -y+1/4, -z+1/4 '
	 '-x+1/4, -z+1/4, -y+1/4 '
	 '-x+1/2, -z, y+1/2 '
	 '-x+1/2, y+1/2, -z '
	 '-x-1/4, z-1/4, y+1/4 '
	 '-x-1/4, y+1/4, z-1/4 '
	 '-y, -z+1/2, x+1/2 '
	 '-y, x+1/2, -z+1/2 '
	 '-y+1/4, -x+1/4, -z+1/4 '
	 '-y+1/4, -z+1/4, -x+1/4 '
	 '-y+1/2, -x, z+1/2 '
	 '-y+1/2, z+1/2, -x '
	 '-y-1/4, z+1/4, x-1/4 '
	 '-y-1/4, x-1/4, z+1/4 '
	 '-z, -x+1/2, y+1/2 '
	 '-z, y+1/2, -x+1/2 '
	 '-z+1/4, -x+1/4, -y+1/4 '
	 '-z+1/4, -y+1/4, -x+1/4 '
	 '-z+1/2, -y, x+1/2 '
	 '-z+1/2, x+1/2, -y '
	 '-z-1/4, y-1/4, x+1/4 '
	 '-z-1/4, x+1/4, y-1/4 '
	 'z, y, x '
	 'z, x, y '
	 'z+1/4, -y-1/4, x-1/4 '
	 'z+1/4, x-1/4, -y-1/4 '
	 'z+1/2, -x, -y+1/2 '
	 'z+1/2, -y+1/2, -x '
	 'z-1/4, -x-1/4, y+1/4 '
	 'z-1/4, y+1/4, -x-1/4 '
	 'y, z, x '
	 'y, x, z '
	 'y+1/4, -x-1/4, z-1/4 '
	 'y+1/4, z-1/4, -x-1/4 '
	 'y+1/2, -x+1/2, -z '
	 'y+1/2, -z, -x+1/2 '
	 'y-1/4, -z-1/4, x+1/4 '
	 'y-1/4, x+1/4, -z-1/4 '
	 'x, z, y '
	 '-x, -y+1/2, z+1/2 '
	 'x+1/4, -z-1/4, y-1/4 '
	 'x+1/4, y-1/4, -z-1/4 '
	 'x+1/2, -y, -z+1/2 '
	 'x+1/2, -z+1/2, -y '
	 'x-1/4, -y-1/4, z+1/4 '
	 'x-1/4, z+1/4, -y-1/4 '
	 'x+1/2, y+1/2, z '
	 '-x+1/2, z, -y+1/2 '
	 '-x-1/4, -y-1/4, -z+1/4 '
	 '-x-1/4, -z-1/4, -y+1/4 '
	 '-x, -z+1/2, y+1/2 '
	 '-x, y, -z '
	 '-x+1/4, z+1/4, y+1/4 '
	 '-x+1/4, y-1/4, z-1/4 '
	 '-y+1/2, -z, x+1/2 '
	 '-y+1/2, x, -z+1/2 '
	 '-y-1/4, -x-1/4, -z+1/4 '
	 '-y-1/4, -z-1/4, -x+1/4 '
	 '-y, -x+1/2, z+1/2 '
	 '-y, z, -x '
	 '-y+1/4, z-1/4, x-1/4 '
	 '-y+1/4, x+1/4, z+1/4 '
	 '-z+1/2, -x, y+1/2 '
	 '-z+1/2, y, -x+1/2 '
	 '-z-1/4, -x-1/4, -y+1/4 '
	 '-z-1/4, -y-1/4, -x+1/4 '
	 '-z, -y+1/2, x+1/2 '
	 '-z, x, -y '
	 '-z+1/4, y+1/4, x+1/4 '
	 '-z+1/4, x-1/4, y-1/4 '
	 'z+1/2, y+1/2, x '
	 'z+1/2, x+1/2, y '
	 'z-1/4, -y+1/4, x-1/4 '
	 'z-1/4, x+1/4, -y-1/4 '
	 'z, -x+1/2, -y+1/2 '
	 'z, -y, -x '
	 'z+1/4, -x+1/4, y+1/4 '
	 'z+1/4, y-1/4, -x-1/4 '
	 'y+1/2, z+1/2, x '
	 'y+1/2, x+1/2, z '
	 'y-1/4, -x+1/4, z-1/4 '
	 'y-1/4, z+1/4, -x-1/4 '
	 'y, -x, -z '
	 'y, -z+1/2, -x+1/2 '
	 'y+1/4, -z+1/4, x+1/4 '
	 'y+1/4, x-1/4, -z-1/4 '
	 'x+1/2, z+1/2, y '
	 '-x+1/2, -y, z+1/2 '
	 'x-1/4, -z+1/4, y-1/4 '
	 'x-1/4, y+1/4, -z-1/4 '
	 'x, -y+1/2, -z+1/2 '
	 'x, -z, -y '
	 'x+1/4, -y+1/4, z+1/4 '
	 'x+1/4, z-1/4, -y-1/4 '
	 'x+1/2, y, z+1/2 '
	 '-x+1/2, z+1/2, -y '
	 '-x-1/4, -y+1/4, -z-1/4 '
	 '-x-1/4, -z+1/4, -y-1/4 '
	 '-x, -z, y '
	 '-x, y+1/2, -z+1/2 '
	 '-x+1/4, z-1/4, y-1/4 '
	 '-x+1/4, y+1/4, z+1/4 '
	 '-y+1/2, -z+1/2, x '
	 '-y+1/2, x+1/2, -z '
	 '-y-1/4, -x+1/4, -z-1/4 '
	 '-y-1/4, -z+1/4, -x-1/4 '
	 '-y, -x, z '
	 '-y, z+1/2, -x+1/2 '
	 '-y+1/4, z+1/4, x+1/4 '
	 '-y+1/4, x-1/4, z-1/4 '
	 '-z+1/2, -x+1/2, y '
	 '-z+1/2, y+1/2, -x '
	 '-z-1/4, -x+1/4, -y-1/4 '
	 '-z-1/4, -y+1/4, -x-1/4 '
	 '-z, -y, x '
	 '-z, x+1/2, -y+1/2 '
	 '-z+1/4, y-1/4, x-1/4 '
	 '-z+1/4, x+1/4, y+1/4 '
	 'z+1/2, y, x+1/2 '
	 'z+1/2, x, y+1/2 '
	 'z-1/4, -y-1/4, x+1/4 '
	 'z-1/4, x-1/4, -y+1/4 '
	 'z, -x, -y '
	 'z, -y+1/2, -x+1/2 '
	 'z+1/4, -x-1/4, y-1/4 '
	 'z+1/4, y+1/4, -x+1/4 '
	 'y+1/2, z, x+1/2 '
	 'y+1/2, x, z+1/2 '
	 'y-1/4, -x-1/4, z+1/4 '
	 'y-1/4, z-1/4, -x+1/4 '
	 'y, -x+1/2, -z+1/2 '
	 'y, -z, -x '
	 'y+1/4, -z-1/4, x-1/4 '
	 'y+1/4, x+1/4, -z+1/4 '
	 'x+1/2, z, y+1/2 '
	 '-x+1/2, -y+1/2, z '
	 'x-1/4, -z-1/4, y+1/4 '
	 'x-1/4, y-1/4, -z+1/4 '
	 'x, -y, -z '
	 'x, -z+1/2, -y+1/2 '
	 'x+1/4, -y-1/4, z-1/4 '
	 'x+1/4, z+1/4, -y+1/4 '
	 'x, y+1/2, z+1/2 '
	 '-x, z, -y '
	 '-x+1/4, -y-1/4, -z-1/4 '
	 '-x+1/4, -z-1/4, -y-1/4 '
	 '-x+1/2, -z+1/2, y '
	 '-x+1/2, y, -z+1/2 '
	 '-x-1/4, z+1/4, y-1/4 '
	 '-x-1/4, y-1/4, z+1/4 '
	 '-y, -z, x '
	 '-y, x, -z '
	 '-y+1/4, -x-1/4, -z-1/4 '
	 '-y+1/4, -z-1/4, -x-1/4 '
	 '-y+1/2, -x+1/2, z '
	 '-y+1/2, z, -x+1/2 '
	 '-y-1/4, z-1/4, x+1/4 '
	 '-y-1/4, x+1/4, z-1/4 '
	 '-z, -x, y '
	 '-z, y, -x '
	 '-z+1/4, -x-1/4, -y-1/4 '
	 '-z+1/4, -y-1/4, -x-1/4 '
	 '-z+1/2, -y+1/2, x '
	 '-z+1/2, x, -y+1/2 '
	 '-z-1/4, y+1/4, x-1/4 '
	 '-z-1/4, x-1/4, y+1/4 '
	 'z, y+1/2, x+1/2 '
	 'z, x+1/2, y+1/2 '
	 'z+1/4, -y+1/4, x+1/4 '
	 'z+1/4, x+1/4, -y+1/4 '
	 'z+1/2, -x+1/2, -y '
	 'z+1/2, -y, -x+1/2 '
	 'z-1/4, -x+1/4, y-1/4 '
	 'z-1/4, y-1/4, -x+1/4 '
	 'y, z+1/2, x+1/2 '
	 'y, x+1/2, z+1/2 '
	 'y+1/4, -x+1/4, z+1/4 '
	 'y+1/4, z+1/4, -x+1/4 '
	 'y+1/2, -x, -z+1/2 '
	 'y+1/2, -z+1/2, -x '
	 'y-1/4, -z+1/4, x-1/4 '
	 'y-1/4, x-1/4, -z+1/4 '
	 'x, z+1/2, y+1/2 '
	 '-x, -y, z '
	 'x+1/4, -z+1/4, y+1/4 '
	 'x+1/4, y+1/4, -z+1/4 '
	 'x+1/2, -y+1/2, -z '
	 'x+1/2, -z, -y+1/2 '
	 'x-1/4, -y+1/4, z-1/4 '
	 'x-1/4, z-1/4, -y+1/4 '
loop_
_atom_site_label
_atom_site_type_symbol
_atom_site_site_symmetry_multiplicity
_atom_site_fract_x
_atom_site_fract_y
_atom_site_fract_z
_atom_site_occupancy
_atom_site_B_iso_or_equiv
Si1 Si   8 0 0 0 1 0.6427304

data_phase_Al2O3_10
_pd_block_id Al2O3_10
_pd_block_diffractogram_id pattern_10

_pd_phase_name Al2O3_10
_cell_length_a 4.765205
_cell_length_b 4.765205
_cell_length_c 13.01054
_cell_angle_alpha 90
_cell_angle_beta 90
_cell_angle_gamma 120
_cell_volume 255.8521
_symmetry_space_group_name_H-M R-3cH
loop_
	_symmetry_equiv_pos_as_xyz
	 'x, y, z '
	 '-x, -y, -z '
	 '-x+y, -x, z '
	 '-x+y, y, z+1/2 '
	 '-y, -x, z+1/2 '
	 '-y, x-y, z '
	 'y, -x+y, -z '
	 'y, x, -z+1/2 '
	 'x-y, -y, -z+1/2 '
	 'x-y, x, -z '
	 '-x, -x+y, -z+1/2 '
	 'x, x-y, z+1/2 '
	 'x-1/3, y+1/3, z+1/3 '
	 '-x-1/3, -y+1/3, -z+1/3 '
	 '-x+y-1/3, -x+1/3, z+1/3 '
	 '-x+y-1/3, y+1/3, z-1/6 '
	 '-y-1/3, -x+1/3, z-1/6 '
	 '-y-1/3, x-y+1/3, z+1/3 '
	 'y-1/3, -x+y+1/3, -z+1/3 '
	 'y-1/3, x+1/3, -z-1/6 '
	 'x-y-1/3, -y+1/3, -z-1/6 '
	 'x-y-1/3, x+1/3, -z+1/3 '
	 '-x-1/3, -x+y+1/3, -z-1/6 '
	 'x-1/3, x-y+1/3, z-1/6 '
	 'x+1/3, y-1/3, z-1/3 '
	 '-x+1/3, -y-1/3, -z-1/3 '
	 '-x+y+1/3, -x-1/3, z-1/3 '
	 '-x+y+1/3, y-1/3, z+1/6 '
	 '-y+1/3, -x-1/3, z+1/6 '
	 '-y+1/3, x-y-1/3, z-1/3 '
	 'y+1/3, -x+y-1/3, -z-1/3 '
	 'y+1/3, x-1/3, -z+1/6 '
	 'x-y+1/3, -y-1/3, -z+1/6 '
	 'x-y+1/3, x-1/3, -z-1/3 '
	 '-x+1/3, -x+y-1/3, -z+1/6 '
	 'x+1/3, x-y-1/3, z+1/6 '
loop_
_atom_site_label
_atom_site_type_symbol
_atom_site_site_symmetry_multiplicity
_atom_site_fract_x
_atom_site_fract_y
_atom_site_fract_z
_atom_site_occupancy
_atom_site_B_iso_or_equiv
Al1 Al+3  12 0 0 0.148 1 0.4530942
O1 O-2  18 0.306 0 0.25 1 0.4530942

data_phase_Si_10
_pd_block_id Si_10
_pd_block_diffractogram_id pattern_10

_pd_phase_name Si_10
_cell_length_a 5.434501
_cell_length_b 5.434501
_cell_length_c 5.434501
_cell_angle_alpha 90
_cell_angle_beta 90
_cell_angle_gamma 90
_cell_volume 160.5015
_symmetry_space_group_name_H-M Fd-3mS
loop_
	_symmetry_equiv_pos_as_xyz
	 'x, y, z '
	 '-x, z+1/2, -y+1/2 '
	 '-x+1/4, -y+1/4, -z+1/4 '
	 '-x+1/4, -z+1/4, -y+1/4 '
	 '-x+1/2, -z, y+1/2 '
	 '-x+1/2, y+1/2, -z '
	 '-x-1/4, z-1/4, y+1/4 '
	 '-x-1/4, y+1/4, z-1/4 '
	 '-y, -z+1/2, x+1/2 '
	 '-y, x+1/2, -z+1/2 '
	 '-y+1/4, -x+1/4, -z+1/4 '
	 '-y+1/4, -z+1/4, -x+1/4 '
	 '-y+1/2, -x, z+1/2 '
	 '-y+1/2, z+1/2, -x '
	 '-y-1/4, z+1/4, x-1/4 '
	 '-y-1/4, x-1/4, z+1/4 '
	 '-z, -x+1/2, y+1/2 '
	 '-z, y+1/2, -x+1/2 '
	 '-z+1/4, -x+1/4, -y+1/4 '
	 '-z+1/4, -y+1/4, -x+1/4 '
	 '-z+1/2, -y, x+1/2 '
	 '-z+1/2, x+1/2, -y '
	 '-z-1/4, y-1/4, x+1/4 '
	 '-z-1/4, x+1/4, y-1/4 '
	 'z, y, x '
	 'z, x, y '
	 'z+1/4, -y-1/4, x-1/4 '
	 'z+1/4, x-1/4, -y-1/4 '
	 'z+1/2, -x, -y+1/2 '
	 'z+1/2, -y+1/2, -x '
	 'z-1/4, -x-1/4, y+1/4 '
	 'z-1/4, y+1/4, -x-1/4 '
	 'y, z, x '
	 'y, x, z '
	 'y+1/4, -x-1/4, z-1/4 '
	 'y+1/4, z-1/4, -x-1/4 '
	 'y+1/2, -x+1/2, -z '
	 'y+1/2, -z, -x+1/2 '
	 'y-1/4, -z-1/4, x+1/4 '
	 'y-1/4, x+1/4, -z-1/4 '
	 'x, z, y '
	 '-x, -y+1/2, z+1/2 '
	 'x+1/4, -z-1/4, y-1/4 '
	 'x+1/4, y-1/4, -z-1/4 '
	 'x+1/2, -y, -z+1/2 '
	 'x+1/2, -z+1/2, -y '
	 'x-1/4, -y-1/4, z+1/4 '
	 'x-1/4, z+1/4, -y-1/4 '
	 'x+1/2, y+1/2, z '
	 '-x+1/2, z, -y+1/2 '
	 '-x-1/4, -y-1/4, -z+1/4 '
	 '-x-1/4, -z-1/4, -y+1/4 '
	 '-x, -z+1/2, y+1/2 '
	 '-x, y, -z '
	 '-x+1/4, z+1/4, y+1/4 '
	 '-x+1/4, y-1/4, z-1/4 '
	 '-y+1/2, -z, x+1/2 '
	 '-y+1/2, x, -z+1/2 '
	 '-y-1/4, -x-1/4, -z+1/4 '
	 '-y-1/4, -z-1/4, -x+1/4 '
	 '-y, -x+1/2, z+1/2 '
	 '-y, z, -x '
	 '-y+1/4, z-1/4, x-1/4 '
	 '-y+1/4, x+1/4, z+1/4 '
	 '-z+1/2, -x, y+1/2 '
	 '-z+1/2, y, -x+1/2 '
	 '-z-1/4, -x-1/4, -y+1/4 '
	 '-z-1/4, -y-1/4, -x+1/4 '
	 '-z, -y+1/2, x+1/2 '
	 '-z, x, -y '
	 '-z+1/4, y+1/4, x+1/4 '
	 '-z+1/4, x-1/4, y-1/4 '
	 'z+1/2, y+1/2, x '
	 'z+1/2, x+1/2, y '
	 'z-1/4, -y+1/4, x-1/4 '
	 'z-1/4, x+1/4, -y-1/4 '
	 'z, -x+1/2, -y+1/2 '
	 'z, -y, -x '
	 'z+1/4, -x+1/4, y+1/4 '
	 'z+1/4, y-1/4, -x-1/4 '
	 'y+1/2, z+1/2, x '
	 'y+1/2, x+1/2, z '
	 'y-1/4, -x+1/4, z-1/4 '
	 'y-1/4, z+1/4, -x-1/4 '
	 'y, -x, -z '
	 'y, -z+1/2, -x+1/2 '
	 'y+1/4, -z+1/4, x+1/4 '
	 'y+1/4, x-1/4, -z-1/4 '
	 'x+1/2, z+1/2, y '
	 '-x+1/2, -y, z+1/2 '
	 'x-1/4, -z+1/4, y-1/4 '
	 'x-1/4, y+1/4, -z-1/4 '
	 'x, -y+1/2, -z+1/2 '
	 'x, -z, -y '
	 'x+1/4, -y+1/4, z+1/4 '
	 'x+1/4, z-1/4, -y-1/4 '
	 'x+1/2, y, z+1/2 '
	 '-x+1/2, z+1/2, -y '
	 '-x-1/4, -y+1/4, -z-1/4 '
	 '-x-1/4, -z+1/4, -y-1/4 '
	 '-x, -z, y '
	 '-x, y+1/2, -z+1/2 '
	 '-x+1/4, z-1/4, y-1/4 '
	 '-x+1/4, y+1/4, z+1/4 '
	 '-y+1/2, -z+1/2, x '
	 '-y+1/2, x+1/2, -z '
	 '-y-1/4, -x+1/4, -z-1/4 '
	 '-y-1/4, -z+1/4, -x-1/4 '
	 '-y, -x, z '
	 '-y, z+1/2, -x+1/2 '
	 '-y+1/4, z+1/4, x+1/4 '
	 '-y+1/4, x-1/4, z-1/4 '
	 '-z+1/2, -x+1/2, y '
	 '-z+1/2, y+1/2, -x '
	 '-z-1/4, -x+1/4, -y-1/4 '
	 '-z-1/4, -y+1/4, -x-1/4 '
	 '-z, -y, x '
	 '-z, x+1/2, -y+1/2 '
	 '-z+1/4, y-1/4, x-1/4 '
	 '-z+1/4, x+1/4, y+1/4 '
	 'z+1/2, y, x+1/2 '
	 'z+1/2, x, y+1/2 '
	 'z-1/4, -y-1/4, x+1/4 '
	 'z-1/4, x-1/4, -y+1/4 '
	 'z, -x, -y '
	 'z, -y+1/2, -x+1/2 '
	 'z+1/4, -x-1/4, y-1/4 '
	 'z+1/4, y+1/4, -x+1/4 '
	 'y+1/2, z, x+1/2 '
	 'y+1/2, x, z+1/2 '
	 'y-1/4, -x-1/4, z+1/4 '
	 'y-1/4, z-1/4, -x+1/4 '
	 'y, -x+1/2, -z+1/2 '
	 'y, -z, -x '
	 'y+1/4, -z-1/4, x-1/4 '
	 'y+1/4, x+1/4, -z+1/4 '
	 'x+1/2, z, y+1/2 '
	 '-x+1/2, -y+1/2, z '
	 'x-1/4, -z-1/4, y+1/4 '
	 'x-1/4, y-1/4, -z+1/4 '
	 'x, -y, -z '
	 'x, -z+1/2, -y+1/2 '
	 'x+1/4, -y-1/4, z-1/4 '
	 'x+1/4, z+1/4, -y+1/4 '
	 'x, y+1/2, z+1/2 '
	 '-x, z, -y '
	 '-x+1/4, -y-1/4, -z-1/4 '
	 '-x+1/4, -z-1/4, -y-1/4 '
	 '-x+1/2, -z+1/2, y '
	 '-x+1/2, y, -z+1/2 '
	 '-x-1/4, z+1/4, y-1/4 '
	 '-x-1/4, y-1/4, z+1/4 '
	 '-y, -z, x '
	 '-y, x, -z '
	 '-y+1/4, -x-1/4, -z-1/4 '
	 '-y+1/4, -z-1/4, -x-1/4 '
	 '-y+1/2, -x+1/2, z '
	 '-y+1/2, z, -x+1/2 '
	 '-y-1/4, z-1/4, x+1/4 '
	 '-y-1/4, x+1/4, z-1/4 '
	 '-z, -x, y '
	 '-z, y, -x '
	 '-z+1/4, -x-1/4, -y-1/4 '
	 '-z+1/4, -y-1/4, -x-1/4 '
	 '-z+1/2, -y+1/2, x '
	 '-z+1/2, x, -y+1/2 '
	 '-z-1/4, y+1/4, x-1/4 '
	 '-z-1/4, x-1/4, y+1/4 '
	 'z, y+1/2, x+1/2 '
	 'z, x+1/2, y+1/2 '
	 'z+1/4, -y+1/4, x+1/4 '
	 'z+1/4, x+1/4, -y+1/4 '
	 'z+1/2, -x+1/2, -y '
	 'z+1/2, -y, -x+1/2 '
	 'z-1/4, -x+1/4, y-1/4 '
	 'z-1/4, y-1/4, -x+1/4 '
	 'y, z+1/2, x+1/2 '
	 'y, x+1/2, z+1/2 '
	 'y+1/4, -x+1/4, z+1/4 '
	 'y+1/4, z+1/4, -x+1/4 '
	 'y+1/2, -x, -z+1/2 '
	 'y+1/2, -z+1/2, -x '
	 'y-1/4, -z+1/4, x-1/4 '
	 'y-1/4, x-1/4, -z+1/4 '
	 'x, z+1/2, y+1/2 '
	 '-x, -y, z '
	 'x+1/4, -z+1/4, y+1/4 '
	 'x+1/4, y+1/4, -z+1/4 '
	 'x+1/2, -y+1/2, -z '
	 'x+1/2, -z, -y+1/2 '
	 'x-1/4, -y+1/4, z-1/4 '
	 'x-1/4, z-1/4, -y+1/4 '
loop_
_atom_site_label
_atom_site_type_symbol
_atom_site_site_symmetry_multiplicity
_atom_site_fract_x
_atom_site_fract_y
_atom_site_fract_z
_atom_site_occupancy
_atom_site_B_iso_or_equiv
Si1 Si   8 0 0 0 1 0.6609469

data_phase_Al2O3_11
_pd_block_id Al2O3_11
_pd_block_diffractogram_id pattern_11

_pd_phase_name Al2O3_11
_cell_length_a 4.765902
_cell_length_b 4.765902
_cell_length_c 13.0126
_cell_angle_alpha 90
_cell_angle_beta 90
_cell_angle_gamma 120
_cell_volume 255.9676
_symmetry_space_group_name_H-M R-3cH
loop_
	_symmetry_equiv_pos_as_xyz
	 'x, y, z '
	 '-x, -y, -z '
	 '-x+y, -x, z '
	 '-x+y, y, z+1/2 '
	 '-y, -x, z+1/2 '
	 '-y, x-y, z '
	 'y, -x+y, -z '
	 'y, x, -z+1/2 '
	 'x-y, -y, -z+1/2 '
	 'x-y, x, -z '
	 '-x, -x+y, -z+1/2 '
	 'x, x-y, z+1/2 '
	 'x-1/3, y+1/3, z+1/3 '
	 '-x-1/3, -y+1/3, -z+1/3 '
	 '-x+y-1/3, -x+1/3, z+1/3 '
	 '-x+y-1/3, y+1/3, z-1/6 '
	 '-y-1/3, -x+1/3, z-1/6 '
	 '-y-1/3, x-y+1/3, z+1/3 '
	 'y-1/3, -x+y+1/3, -z+1/3 '
	 'y-1/3, x+1/3, -z-1/6 '
	 'x-y-1/3, -y+1/3, -z-1/6 '
	 'x-y-1/3, x+1/3, -z+1/3 '
	 '-x-1/3, -x+y+1/3, -z-1/6 '
	 'x-1/3, x-y+1/3, z-1/6 '
	 'x+1/3, y-1/3, z-1/3 '
	 '-x+1/3, -y-1/3, -z-1/3 '
	 '-x+y+1/3, -x-1/3, z-1/3 '
	 '-x+y+1/3, y-1/3, z+1/6 '
	 '-y+1/3, -x-1/3, z+1/6 '
	 '-y+1/3, x-y-1/3, z-1/3 '
	 'y+1/3, -x+y-1/3, -z-1/3 '
	 'y+1/3, x-1/3, -z+1/6 '
	 'x-y+1/3, -y-1/3, -z+1/6 '
	 'x-y+1/3, x-1/3, -z-1/3 '
	 '-x+1/3, -x+y-1/3, -z+1/6 '
	 'x+1/3, x-y-1/3, z+1/6 '
loop_
_atom_site_label
_atom_site_type_symbol
_atom_site_site_symmetry_multiplicity
_atom_site_fract_x
_atom_site_fract_y
_atom_site_fract_z
_atom_site_occupancy
_atom_site_B_iso_or_equiv
Al1 Al+3  12 0 0 0.148 1 0.4322175
O1 O-2  18 0.306 0 0.25 1 0.4322175

data_phase_Si_11
_pd_block_id Si_11
_pd_block_diffractogram_id pattern_11

_pd_phase_name Si_11
_cell_length_a 5.434911
_cell_length_b 5.434911
_cell_length_c 5.434911
_cell_angle_alpha 90
_cell_angle_beta 90
_cell_angle_gamma 90
_cell_volume 160.5378
_symmetry_space_group_name_H-M Fd-3mS
loop_
	_symmetry_equiv_pos_as_xyz
	 'x, y, z '
	 '-x, z+1/2, -y+1/2 '
	 '-x+1/4, -y+1/4, -z+1/4 '
	 '-x+1/4, -z+1/4, -y+1/4 '
	 '-x+1/2, -z, y+1/2 '
	 '-x+1/2, y+1/2, -z '
	 '-x-1/4, z-1/4, y+1/4 '
	 '-x-1/4, y+1/4, z-1/4 '
	 '-y, -z+1/2, x+1/2 '
	 '-y, x+1/2, -z+1/2 '
	 '-y+1/4, -x+1/4, -z+1/4 '
	 '-y+1/4, -z+1/4, -x+1/4 '
	 '-y+1/2, -x, z+1/2 '
	 '-y+1/2, z+1/2, -x '
	 '-y-1/4, z+1/4, x-1/4 '
	 '-y-1/4, x-1/4, z+1/4 '
	 '-z, -x+1/2, y+1/2 '
	 '-z, y+1/2, -x+1/2 '
	 '-z+1/4, -x+1/4, -y+1/4 '
	 '-z+1/4, -y+1/4, -x+1/4 '
	 '-z+1/2, -y, x+1/2 '
	 '-z+1/2, x+1/2, -y '
	 '-z-1/4, y-1/4, x+1/4 '
	 '-z-1/4, x+1/4, y-1/4 '
	 'z, y, x '
	 'z, x, y '
	 'z+1/4, -y-1/4, x-1/4 '
	 'z+1/4, x-1/4, -y-1/4 '
	 'z+1/2, -x, -y+1/2 '
	 'z+1/2, -y+1/2, -x '
	 'z-1/4, -x-1/4, y+1/4 '
	 'z-1/4, y+1/4, -x-1/4 '
	 'y, z, x '
	 'y, x, z '
	 'y+1/4, -x-1/4, z-1/4 '
	 'y+1/4, z-1/4, -x-1/4 '
	 'y+1/2, -x+1/2, -z '
	 'y+1/2, -z, -x+1/2 '
	 'y-1/4, -z-1/4, x+1/4 '
	 'y-1/4, x+1/4, -z-1/4 '
	 'x, z, y '
	 '-x, -y+1/2, z+1/2 '
	 'x+1/4, -z-1/4, y-1/4 '
	 'x+1/4, y-1/4, -z-1/4 '
	 'x+1/2, -y, -z+1/2 '
	 'x+1/2, -z+1/2, -y '
	 'x-1/4, -y-1/4, z+1/4 '
	 'x-1/4, z+1/4, -y-1/4 '
	 'x+1/2, y+1/2, z '
	 '-x+1/2, z, -y+1/2 '
	 '-x-1/4, -y-1/4, -z+1/4 '
	 '-x-1/4, -z-1/4, -y+1/4 '
	 '-x, -z+1/2, y+1/2 '
	 '-x, y, -z '
	 '-x+1/4, z+1/4, y+1/4 '
	 '-x+1/4, y-1/4, z-1/4 '
	 '-y+1/2, -z, x+1/2 '
	 '-y+1/2, x, -z+1/2 '
	 '-y-1/4, -x-1/4, -z+1/4 '
	 '-y-1/4, -z-1/4, -x+1/4 '
	 '-y, -x+1/2, z+1/2 '
	 '-y, z, -x '
	 '-y+1/4, z-1/4, x-1/4 '
	 '-y+1/4, x+1/4, z+1/4 '
	 '-z+1/2, -x, y+1/2 '
	 '-z+1/2, y, -x+1/2 '
	 '-z-1/4, -x-1/4, -y+1/4 '
	 '-z-1/4, -y-1/4, -x+1/4 '
	 '-z, -y+1/2, x+1/2 '
	 '-z, x, -y '
	 '-z+1/4, y+1/4, x+1/4 '
	 '-z+1/4, x-1/4, y-1/4 '
	 'z+1/2, y+1/2, x '
	 'z+1/2, x+1/2, y '
	 'z-1/4, -y+1/4, x-1/4 '
	 'z-1/4, x+1/4, -y-1/4 '
	 'z, -x+1/2, -y+1/2 '
	 'z, -y, -x '
	 'z+1/4, -x+1/4, y+1/4 '
	 'z+1/4, y-1/4, -x-1/4 '
	 'y+1/2, z+1/2, x '
	 'y+1/2, x+1/2, z '
	 'y-1/4, -x+1/4, z-1/4 '
	 'y-1/4, z+1/4, -x-1/4 '
	 'y, -x, -z '
	 'y, -z+1/2, -x+1/2 '
	 'y+1/4, -z+1/4, x+1/4 '
	 'y+1/4, x-1/4, -z-1/4 '
	 'x+1/2, z+1/2, y '
	 '-x+1/2, -y, z+1/2 '
	 'x-1/4, -z+1/4, y-1/4 '
	 'x-1/4, y+1/4, -z-1/4 '
	 'x, -y+1/2, -z+1/2 '
	 'x, -z, -y '
	 'x+1/4, -y+1/4, z+1/4 '
	 'x+1/4, z-1/4, -y-1/4 '
	 'x+1/2, y, z+1/2 '
	 '-x+1/2, z+1/2, -y '
	 '-x-1/4, -y+1/4, -z-1/4 '
	 '-x-1/4, -z+1/4, -y-1/4 '
	 '-x, -z, y '
	 '-x, y+1/2, -z+1/2 '
	 '-x+1/4, z-1/4, y-1/4 '
	 '-x+1/4, y+1/4, z+1/4 '
	 '-y+1/2, -z+1/2, x '
	 '-y+1/2, x+1/2, -z '
	 '-y-1/4, -x+1/4, -z-1/4 '
	 '-y-1/4, -z+1/4, -x-1/4 '
	 '-y, -x, z '
	 '-y, z+1/2, -x+1/2 '
	 '-y+1/4, z+1/4, x+1/4 '
	 '-y+1/4, x-1/4, z-1/4 '
	 '-z+1/2, -x+1/2, y '
	 '-z+1/2, y+1/2, -x '
	 '-z-1/4, -x+1/4, -y-1/4 '
	 '-z-1/4, -y+1/4, -x-1/4 '
	 '-z, -y, x '
	 '-z, x+1/2, -y+1/2 '
	 '-z+1/4, y-1/4, x-1/4 '
	 '-z+1/4, x+1/4, y+1/4 '
	 'z+1/2, y, x+1/2 '
	 'z+1/2, x, y+1/2 '
	 'z-1/4, -y-1/4, x+1/4 '
	 'z-1/4, x-1/4, -y+1/4 '
	 'z, -x, -y '
	 'z, -y+1/2, -x+1/2 '
	 'z+1/4, -x-1/4, y-1/4 '
	 'z+1/4, y+1/4, -x+1/4 '
	 'y+1/2, z, x+1/2 '
	 'y+1/2, x, z+1/2 '
	 'y-1/4, -x-1/4, z+1/4 '
	 'y-1/4, z-1/4, -x+1/4 '
	 'y, -x+1/2, -z+1/2 '
	 'y, -z, -x '
	 'y+1/4, -z-1/4, x-1/4 '
	 'y+1/4, x+1/4, -z+1/4 '
	 'x+1/2, z, y+1/2 '
	 '-x+1/2, -y+1/2, z '
	 'x-1/4, -z-1/4, y+1/4 '
	 'x-1/4, y-1/4, -z+1/4 '
	 'x, -y, -z '
	 'x, -z+1/2, -y+1/2 '
	 'x+1/4, -y-1/4, z-1/4 '
	 'x+1/4, z+1/4, -y+1/4 '
	 'x, y+1/2, z+1/2 '
	 '-x, z, -y '
	 '-x+1/4, -y-1/4, -z-1/4 '
	 '-x+1/4, -z-1/4, -y-1/4 '
	 '-x+1/2, -z+1/2, y '
	 '-x+1/2, y, -z+1/2 '
	 '-x-1/4, z+1/4, y-1/4 '
	 '-x-1/4, y-1/4, z+1/4 '
	 '-y, -z, x '
	 '-y, x, -z '
	 '-y+1/4, -x-1/4, -z-1/4 '
	 '-y+1/4, -z-1/4, -x-1/4 '
	 '-y+1/2, -x+1/2, z '
	 '-y+1/2, z, -x+1/2 '
	 '-y-1/4, z-1/4, x+1/4 '
	 '-y-1/4, x+1/4, z-1/4 '
	 '-z, -x, y '
	 '-z, y, -x '
	 '-z+1/4, -x-1/4, -y-1/4 '
	 '-z+1/4, -y-1/4, -x-1/4 '
	 '-z+1/2, -y+1/2, x '
	 '-z+1/2, x, -y+1/2 '
	 '-z-1/4, y+1/4, x-1/4 '
	 '-z-1/4, x-1/4, y+1/4 '
	 'z, y+1/2, x+1/2 '
	 'z, x+1/2, y+1/2 '
	 'z+1/4, -y+1/4, x+1/4 '
	 'z+1/4, x+1/4, -y+1/4 '
	 'z+1/2, -x+1/2, -y '
	 'z+1/2, -y, -x+1/2 '
	 'z-1/4, -x+1/4, y-1/4 '
	 'z-1/4, y-1/4, -x+1/4 '
	 'y, z+1/2, x+1/2 '
	 'y, x+1/2, z+1/2 '
	 'y+1/4, -x+1/4, z+1/4 '
	 'y+1/4, z+1/4, -x+1/4 '
	 'y+1/2, -x, -z+1/2 '
	 'y+1/2, -z+1/2, -x '
	 'y-1/4, -z+1/4, x-1/4 '
	 'y-1/4, x-1/4, -z+1/4 '
	 'x, z+1/2, y+1/2 '
	 '-x, -y, z '
	 'x+1/4, -z+1/4, y+1/4 '
	 'x+1/4, y+1/4, -z+1/4 '
	 'x+1/2, -y+1/2, -z '
	 'x+1/2, -z, -y+1/2 '
	 'x-1/4, -y+1/4, z-1/4 '
	 'x-1/4, z-1/4, -y+1/4 '
loop_
_atom_site_label
_atom_site_type_symbol
_atom_site_site_symmetry_multiplicity
_atom_site_fract_x
_atom_site_fract_y
_atom_site_fract_z
_atom_site_occupancy
_atom_site_B_iso_or_equiv
Si1 Si   8 0 0 0 1 0.7279342

data_phase_Al2O3_12
_pd_block_id Al2O3_12
_pd_block_diffractogram_id pattern_12

_pd_phase_name Al2O3_12
_cell_length_a 4.76657
_cell_length_b 4.76657
_cell_length_c 13.01451
_cell_angle_alpha 90
_cell_angle_beta 90
_cell_angle_gamma 120
_cell_volume 256.0769
_symmetry_space_group_name_H-M R-3cH
loop_
	_symmetry_equiv_pos_as_xyz
	 'x, y, z '
	 '-x, -y, -z '
	 '-x+y, -x, z '
	 '-x+y, y, z+1/2 '
	 '-y, -x, z+1/2 '
	 '-y, x-y, z '
	 'y, -x+y, -z '
	 'y, x, -z+1/2 '
	 'x-y, -y, -z+1/2 '
	 'x-y, x, -z '
	 '-x, -x+y, -z+1/2 '
	 'x, x-y, z+1/2 '
	 'x-1/3, y+1/3, z+1/3 '
	 '-x-1/3, -y+1/3, -z+1/3 '
	 '-x+y-1/3, -x+1/3, z+1/3 '
	 '-x+y-1/3, y+1/3, z-1/6 '
	 '-y-1/3, -x+1/3, z-1/6 '
	 '-y-1/3, x-y+1/3, z+1/3 '
	 'y-1/3, -x+y+1/3, -z+1/3 '
	 'y-1/3, x+1/3, -z-1/6 '
	 'x-y-1/3, -y+1/3, -z-1/6 '
	 'x-y-1/3, x+1/3, -z+1/3 '
	 '-x-1/3, -x+y+1/3, -z-1/6 '
	 'x-1/3, x-y+1/3, z-1/6 '
	 'x+1/3, y-1/3, z-1/3 '
	 '-x+1/3, -y-1/3, -z-1/3 '
	 '-x+y+1/3, -x-1/3, z-1/3 '
	 '-x+y+1/3, y-1/3, z+1/6 '
	 '-y+1/3, -x-1/3, z+1/6 '
	 '-y+1/3, x-y-1/3, z-1/3 '
	 'y+1/3, -x+y-1/3, -z-1/3 '
	 'y+1/3, x-1/3, -z+1/6 '
	 'x-y+1/3, -y-1/3, -z+1/6 '
	 'x-y+1/3, x-1/3, -z-1/3 '
	 '-x+1/3, -x+y-1/3, -z+1/6 '
	 'x+1/3, x-y-1/3, z+1/6 '
loop_
_atom_site_label
_atom_site_type_symbol
_atom_site_site_symmetry_multiplicity
_atom_site_fract_x
_atom_site_fract_y
_atom_site_fract_z
_atom_site_occupancy
_atom_site_B_iso_or_equiv
Al1 Al+3  12 0 0 0.148 1 0.4546443
O1 O-2  18 0.306 0 0.25 1 0.4546443

data_phase_Si_12
_pd_block_id Si_12
_pd_block_diffractogram_id pattern_12

_pd_phase_name Si_12
_cell_length_a 5.435275
_cell_length_b 5.435275
_cell_length_c 5.435275
_cell_angle_alpha 90
_cell_angle_beta 90
_cell_angle_gamma 90
_cell_volume 160.57
_symmetry_space_group_name_H-M Fd-3mS
loop_
	_symmetry_equiv_pos_as_xyz
	 'x, y, z '
	 '-x, z+1/2, -y+1/2 '
	 '-x+1/4, -y+1/4, -z+1/4 '
	 '-x+1/4, -z+1/4, -y+1/4 '
	 '-x+1/2, -z, y+1/2 '
	 '-x+1/2, y+1/2, -z '
	 '-x-1/4, z-1/4, y+1/4 '
	 '-x-1/4, y+1/4, z-1/4 '
	 '-y, -z+1/2, x+1/2 '
	 '-y, x+1/2, -z+1/2 '
	 '-y+1/4, -x+1/4, -z+1/4 '
	 '-y+1/4, -z+1/4, -x+1/4 '
	 '-y+1/2, -x, z+1/2 '
	 '-y+1/2, z+1/2, -x '
	 '-y-1/4, z+1/4, x-1/4 '
	 '-y-1/4, x-1/4, z+1/4 '
	 '-z, -x+1/2, y+1/2 '
	 '-z, y+1/2, -x+1/2 '
	 '-z+1/4, -x+1/4, -y+1/4 '
	 '-z+1/4, -y+1/4, -x+1/4 '
	 '-z+1/2, -y, x+1/2 '
	 '-z+1/2, x+1/2, -y '
	 '-z-1/4, y-1/4, x+1/4 '
	 '-z-1/4, x+1/4, y-1/4 '
	 'z, y, x '
	 'z, x, y '
	 'z+1/4, -y-1/4, x-1/4 '
	 'z+1/4, x-1/4, -y-1/4 '
	 'z+1/2, -x, -y+1/2 '
	 'z+1/2, -y+1/2, -x '
	 'z-1/4, -x-1/4, y+1/4 '
	 'z-1/4, y+1/4, -x-1/4 '
	 'y, z, x '
	 'y, x, z '
	 'y+1/4, -x-1/4, z-1/4 '
	 'y+1/4, z-1/4, -x-1/4 '
	 'y+1/2, -x+1/2, -z '
	 'y+1/2, -z, -x+1/2 '
	 'y-1/4, -z-1/4, x+1/4 '
	 'y-1/4, x+1/4, -z-1/4 '
	 'x, z, y '
	 '-x, -y+1/2, z+1/2 '
	 'x+1/4, -z-1/4, y-1/4 '
	 'x+1/4, y-1/4, -z-1/4 '
	 'x+1/2, -y, -z+1/2 '
	 'x+1/2, -z+1/2, -y '
	 'x-1/4, -y-1/4, z+1/4 '
	 'x-1/4, z+1/4, -y-1/4 '
	 'x+1/2, y+1/2, z '
	 '-x+1/2, z, -y+1/2 '
	 '-x-1/4, -y-1/4, -z+1/4 '
	 '-x-1/4, -z-1/4, -y+1/4 '
	 '-x, -z+1/2, y+1/2 '
	 '-x, y, -z '
	 '-x+1/4, z+1/4, y+1/4 '
	 '-x+1/4, y-1/4, z-1/4 '
	 '-y+1/2, -z, x+1/2 '
	 '-y+1/2, x, -z+1/2 '
	 '-y-1/4, -x-1/4, -z+1/4 '
	 '-y-1/4, -z-1/4, -x+1/4 '
	 '-y, -x+1/2, z+1/2 '
	 '-y, z, -x '
	 '-y+1/4, z-1/4, x-1/4 '
	 '-y+1/4, x+1/4, z+1/4 '
	 '-z+1/2, -x, y+1/2 '
	 '-z+1/2, y, -x+1/2 '
	 '-z-1/4, -x-1/4, -y+1/4 '
	 '-z-1/4, -y-1/4, -x+1/4 '
	 '-z, -y+1/2, x+1/2 '
	 '-z, x, -y '
	 '-z+1/4, y+1/4, x+1/4 '
	 '-z+1/4, x-1/4, y-1/4 '
	 'z+1/2, y+1/2, x '
	 'z+1/2, x+1/2, y '
	 'z-1/4, -y+1/4, x-1/4 '
	 'z-1/4, x+1/4, -y-1/4 '
	 'z, -x+1/2, -y+1/2 '
	 'z, -y, -x '
	 'z+1/4, -x+1/4, y+1/4 '
	 'z+1/4, y-1/4, -x-1/4 '
	 'y+1/2, z+1/2, x '
	 'y+1/2, x+1/2, z '
	 'y-1/4, -x+1/4, z-1/4 '
	 'y-1/4, z+1/4, -x-1/4 '
	 'y, -x, -z '
	 'y, -z+1/2, -x+1/2 '
	 'y+1/4, -z+1/4, x+1/4 '
	 'y+1/4, x-1/4, -z-1/4 '
	 'x+1/2, z+1/2, y '
	 '-x+1/2, -y, z+1/2 '
	 'x-1/4, -z+1/4, y-1/4 '
	 'x-1/4, y+1/4, -z-1/4 '
	 'x, -y+1/2, -z+1/2 '
	 'x, -z, -y '
	 'x+1/4, -y+1/4, z+1/4 '
	 'x+1/4, z-1/4, -y-1/4 '
	 'x+1/2, y, z+1/2 '
	 '-x+1/2, z+1/2, -y '
	 '-x-1/4, -y+1/4, -z-1/4 '
	 '-x-1/4, -z+1/4, -y-1/4 '
	 '-x, -z, y '
	 '-x, y+1/2, -z+1/2 '
	 '-x+1/4, z-1/4, y-1/4 '
	 '-x+1/4, y+1/4, z+1/4 '
	 '-y+1/2, -z+1/2, x '
	 '-y+1/2, x+1/2, -z '
	 '-y-1/4, -x+1/4, -z-1/4 '
	 '-y-1/4, -z+1/4, -x-1/4 '
	 '-y, -x, z '
	 '-y, z+1/2, -x+1/2 '
	 '-y+1/4, z+1/4, x+1/4 '
	 '-y+1/4, x-1/4, z-1/4 '
	 '-z+1/2, -x+1/2, y '
	 '-z+1/2, y+1/2, -x '
	 '-z-1/4, -x+1/4, -y-1/4 '
	 '-z-1/4, -y+1/4, -x-1/4 '
	 '-z, -y, x '
	 '-z, x+1/2, -y+1/2 '
	 '-z+1/4, y-1/4, x-1/4 '
	 '-z+1/4, x+1/4, y+1/4 '
	 'z+1/2, y, x+1/2 '
	 'z+1/2, x, y+1/2 '
	 'z-1/4, -y-1/4, x+1/4 '
	 'z-1/4, x-1/4, -y+1/4 '
	 'z, -x, -y '
	 'z, -y+1/2, -x+1/2 '
	 'z+1/4, -x-1/4, y-1/4 '
	 'z+1/4, y+1/4, -x+1/4 '
	 'y+1/2, z, x+1/2 '
	 'y+1/2, x, z+1/2 '
	 'y-1/4, -x-1/4, z+1/4 '
	 'y-1/4, z-1/4, -x+1/4 '
	 'y, -x+1/2, -z+1/2 '
	 'y, -z, -x '
	 'y+1/4, -z-1/4, x-1/4 '
	 'y+1/4, x+1/4, -z+1/4 '
	 'x+1/2, z, y+1/2 '
	 '-x+1/2, -y+1/2, z '
	 'x-1/4, -z-1/4, y+1/4 '
	 'x-1/4, y-1/4, -z+1/4 '
	 'x, -y, -z '
	 'x, -z+1/2, -y+1/2 '
	 'x+1/4, -y-1/4, z-1/4 '
	 'x+1/4, z+1/4, -y+1/4 '
	 'x, y+1/2, z+1/2 '
	 '-x, z, -y '
	 '-x+1/4, -y-1/4, -z-1/4 '
	 '-x+1/4, -z-1/4, -y-1/4 '
	 '-x+1/2, -z+1/2, y '
	 '-x+1/2, y, -z+1/2 '
	 '-x-1/4, z+1/4, y-1/4 '
	 '-x-1/4, y-1/4, z+1/4 '
	 '-y, -z, x '
	 '-y, x, -z '
	 '-y+1/4, -x-1/4, -z-1/4 '
	 '-y+1/4, -z-1/4, -x-1/4 '
	 '-y+1/2, -x+1/2, z '
	 '-y+1/2, z, -x+1/2 '
	 '-y-1/4, z-1/4, x+1/4 '
	 '-y-1/4, x+1/4, z-1/4 '
	 '-z, -x, y '
	 '-z, y, -x '
	 '-z+1/4, -x-1/4, -y-1/4 '
	 '-z+1/4, -y-1/4, -x-1/4 '
	 '-z+1/2, -y+1/2, x '
	 '-z+1/2, x, -y+1/2 '
	 '-z-1/4, y+1/4, x-1/4 '
	 '-z-1/4, x-1/4, y+1/4 '
	 'z, y+1/2, x+1/2 '
	 'z, x+1/2, y+1/2 '
	 'z+1/4, -y+1/4, x+1/4 '
	 'z+1/4, x+1/4, -y+1/4 '
	 'z+1/2, -x+1/2, -y '
	 'z+1/2, -y, -x+1/2 '
	 'z-1/4, -x+1/4, y-1/4 '
	 'z-1/4, y-1/4, -x+1/4 '
	 'y, z+1/2, x+1/2 '
	 'y, x+1/2, z+1/2 '
	 'y+1/4, -x+1/4, z+1/4 '
	 'y+1/4, z+1/4, -x+1/4 '
	 'y+1/2, -x, -z+1/2 '
	 'y+1/2, -z+1/2, -x '
	 'y-1/4, -z+1/4, x-1/4 '
	 'y-1/4, x-1/4, -z+1/4 '
	 'x, z+1/2, y+1/2 '
	 '-x, -y, z '
	 'x+1/4, -z+1/4, y+1/4 '
	 'x+1/4, y+1/4, -z+1/4 '
	 'x+1/2, -y+1/2, -z '
	 'x+1/2, -z, -y+1/2 '
	 'x-1/4, -y+1/4, z-1/4 '
	 'x-1/4, z-1/4, -y+1/4 '
loop_
_atom_site_label
_atom_site_type_symbol
_atom_site_site_symmetry_multiplicity
_atom_site_fract_x
_atom_site_fract_y
_atom_site_fract_z
_atom_site_occupancy
_atom_site_B_iso_or_equiv
Si1 Si   8 0 0 0 1 0.7202417

data_phase_Al2O3_13
_pd_block_id Al2O3_13
_pd_block_diffractogram_id pattern_13

_pd_phase_name Al2O3_13
_cell_length_a 4.767232
_cell_length_b 4.767232
_cell_length_c 13.01672
_cell_angle_alpha 90
_cell_angle_beta 90
_cell_angle_gamma 120
_cell_volume 256.1915
_symmetry_space_group_name_H-M R-3cH
loop_
	_symmetry_equiv_pos_as_xyz
	 'x, y, z '
	 '-x, -y, -z '
	 '-x+y, -x, z '
	 '-x+y, y, z+1/2 '
	 '-y, -x, z+1/2 '
	 '-y, x-y, z '
	 'y, -x+y, -z '
	 'y, x, -z+1/2 '
	 'x-y, -y, -z+1/2 '
	 'x-y, x, -z '
	 '-x, -x+y, -z+1/2 '
	 'x, x-y, z+1/2 '
	 'x-1/3, y+1/3, z+1/3 '
	 '-x-1/3, -y+1/3, -z+1/3 '
	 '-x+y-1/3, -x+1/3, z+1/3 '
	 '-x+y-1/3, y+1/3, z-1/6 '
	 '-y-1/3, -x+1/3, z-1/6 '
	 '-y-1/3, x-y+1/3, z+1/3 '
	 'y-1/3, -x+y+1/3, -z+1/3 '
	 'y-1/3, x+1/3, -z-1/6 '
	 'x-y-1/3, -y+1/3, -z-1/6 '
	 'x-y-1/3, x+1/3, -z+1/3 '
	 '-x-1/3, -x+y+1/3, -z-1/6 '
	 'x-1/3, x-y+1/3, z-1/6 '
	 'x+1/3, y-1/3, z-1/3 '
	 '-x+1/3, -y-1/3, -z-1/3 '
	 '-x+y+1/3, -x-1/3, z-1/3 '
	 '-x+y+1/3, y-1/3, z+1/6 '
	 '-y+1/3, -x-1/3, z+1/6 '
	 '-y+1/3, x-y-1/3, z-1/3 '
	 'y+1/3, -x+y-1/3, -z-1/3 '
	 'y+1/3, x-1/3, -z+1/6 '
	 'x-y+1/3, -y-1/3, -z+1/6 '
	 'x-y+1/3, x-1/3, -z-1/3 '
	 '-x+1/3, -x+y-1/3, -z+1/6 '
	 'x+1/3, x-y-1/3, z+1/6 '
loop_
_atom_site_label
_atom_site_type_symbol
_atom_site_site_symmetry_multiplicity
_atom_site_fract_x
_atom_site_fract_y
_atom_site_fract_z
_atom_site_occupancy
_atom_site_B_iso_or_equiv
Al1 Al+3  12 0 0 0.148 1 0.4775373
O1 O-2  18 0.306 0 0.25 1 0.4775373

data_phase_Si_13
_pd_block_id Si_13
_pd_block_diffractogram_id pattern_13

_pd_phase_name Si_13
_cell_length_a 5.43568
_cell_length_b 5.43568
_cell_length_c 5.43568
_cell_angle_alpha 90
_cell_angle_beta 90
_cell_angle_gamma 90
_cell_volume 160.6059
_symmetry_space_group_name_H-M Fd-3mS
loop_
	_symmetry_equiv_pos_as_xyz
	 'x, y, z '
	 '-x, z+1/2, -y+1/2 '
	 '-x+1/4, -y+1/4, -z+1/4 '
	 '-x+1/4, -z+1/4, -y+1/4 '
	 '-x+1/2, -z, y+1/2 '
	 '-x+1/2, y+1/2, -z '
	 '-x-1/4, z-1/4, y+1/4 '
	 '-x-1/4, y+1/4, z-1/4 '
	 '-y, -z+1/2, x+1/2 '
	 '-y, x+1/2, -z+1/2 '
	 '-y+1/4, -x+1/4, -z+1/4 '
	 '-y+1/4, -z+1/4, -x+1/4 '
	 '-y+1/2, -x, z+1/2 '
	 '-y+1/2, z+1/2, -x '
	 '-y-1/4, z+1/4, x-1/4 '
	 '-y-1/4, x-1/4, z+1/4 '
	 '-z, -x+1/2, y+1/2 '
	 '-z, y+1/2, -x+1/2 '
	 '-z+1/4, -x+1/4, -y+1/4 '
	 '-z+1/4, -y+1/4, -x+1/4 '
	 '-z+1/2, -y, x+1/2 '
	 '-z+1/2, x+1/2, -y '
	 '-z-1/4, y-1/4, x+1/4 '
	 '-z-1/4, x+1/4, y-1/4 '
	 'z, y, x '
	 'z, x, y '
	 'z+1/4, -y-1/4, x-1/4 '
	 'z+1/4, x-1/4, -y-1/4 '
	 'z+1/2, -x, -y+1/2 '
	 'z+1/2, -y+1/2, -x '
	 'z-1/4, -x-1/4, y+1/4 '
	 'z-1/4, y+1/4, -x-1/4 '
	 'y, z, x '
	 'y, x, z '
	 'y+1/4, -x-1/4, z-1/4 '
	 'y+1/4, z-1/4, -x-1/4 '
	 'y+1/2, -x+1/2, -z '
	 'y+1/2, -z, -x+1/2 '
	 'y-1/4, -z-1/4, x+1/4 '
	 'y-1/4, x+1/4, -z-1/4 '
	 'x, z, y '
	 '-x, -y+1/2, z+1/2 '
	 'x+1/4, -z-1/4, y-1/4 '
	 'x+1/4, y-1/4, -z-1/4 '
	 'x+1/2, -y, -z+1/2 '
	 'x+1/2, -z+1/2, -y '
	 'x-1/4, -y-1/4, z+1/4 '
	 'x-1/4, z+1/4, -y-1/4 '
	 'x+1/2, y+1/2, z '
	 '-x+1/2, z, -y+1/2 '
	 '-x-1/4, -y-1/4, -z+1/4 '
	 '-x-1/4, -z-1/4, -y+1/4 '
	 '-x, -z+1/2, y+1/2 '
	 '-x, y, -z '
	 '-x+1/4, z+1/4, y+1/4 '
	 '-x+1/4, y-1/4, z-1/4 '
	 '-y+1/2, -z, x+1/2 '
	 '-y+1/2, x, -z+1/2 '
	 '-y-1/4, -x-1/4, -z+1/4 '
	 '-y-1/4, -z-1/4, -x+1/4 '
	 '-y, -x+1/2, z+1/2 '
	 '-y, z, -x '
	 '-y+1/4, z-1/4, x-1/4 '
	 '-y+1/4, x+1/4, z+1/4 '
	 '-z+1/2, -x, y+1/2 '
	 '-z+1/2, y, -x+1/2 '
	 '-z-1/4, -x-1/4, -y+1/4 '
	 '-z-1/4, -y-1/4, -x+1/4 '
	 '-z, -y+1/2, x+1/2 '
	 '-z, x, -y '
	 '-z+1/4, y+1/4, x+1/4 '
	 '-z+1/4, x-1/4, y-1/4 '
	 'z+1/2, y+1/2, x '
	 'z+1/2, x+1/2, y '
	 'z-1/4, -y+1/4, x-1/4 '
	 'z-1/4, x+1/4, -y-1/4 '
	 'z, -x+1/2, -y+1/2 '
	 'z, -y, -x '
	 'z+1/4, -x+1/4, y+1/4 '
	 'z+1/4, y-1/4, -x-1/4 '
	 'y+1/2, z+1/2, x '
	 'y+1/2, x+1/2, z '
	 'y-1/4, -x+1/4, z-1/4 '
	 'y-1/4, z+1/4, -x-1/4 '
	 'y, -x, -z '
	 'y, -z+1/2, -x+1/2 '
	 'y+1/4, -z+1/4, x+1/4 '
	 'y+1/4, x-1/4, -z-1/4 '
	 'x+1/2, z+1/2, y '
	 '-x+1/2, -y, z+1/2 '
	 'x-1/4, -z+1/4, y-1/4 '
	 'x-1/4, y+1/4, -z-1/4 '
	 'x, -y+1/2, -z+1/2 '
	 'x, -z, -y '
	 'x+1/4, -y+1/4, z+1/4 '
	 'x+1/4, z-1/4, -y-1/4 '
	 'x+1/2, y, z+1/2 '
	 '-x+1/2, z+1/2, -y '
	 '-x-1/4, -y+1/4, -z-1/4 '
	 '-x-1/4, -z+1/4, -y-1/4 '
	 '-x, -z, y '
	 '-x, y+1/2, -z+1/2 '
	 '-x+1/4, z-1/4, y-1/4 '
	 '-x+1/4, y+1/4, z+1/4 '
	 '-y+1/2, -z+1/2, x '
	 '-y+1/2, x+1/2, -z '
	 '-y-1/4, -x+1/4, -z-1/4 '
	 '-y-1/4, -z+1/4, -x-1/4 '
	 '-y, -x, z '
	 '-y, z+1/2, -x+1/2 '
	 '-y+1/4, z+1/4, x+1/4 '
	 '-y+1/4, x-1/4, z-1/4 '
	 '-z+1/2, -x+1/2, y '
	 '-z+1/2, y+1/2, -x '
	 '-z-1/4, -x+1/4, -y-1/4 '
	 '-z-1/4, -y+1/4, -x-1/4 '
	 '-z, -y, x '
	 '-z, x+1/2, -y+1/2 '
	 '-z+1/4, y-1/4, x-1/4 '
	 '-z+1/4, x+1/4, y+1/4 '
	 'z+1/2, y, x+1/2 '
	 'z+1/2, x, y+1/2 '
	 'z-1/4, -y-1/4, x+1/4 '
	 'z-1/4, x-1/4, -y+1/4 '
	 'z, -x, -y '
	 'z, -y+1/2, -x+1/2 '
	 'z+1/4, -x-1/4, y-1/4 '
	 'z+1/4, y+1/4, -x+1/4 '
	 'y+1/2, z, x+1/2 '
	 'y+1/2, x, z+1/2 '
	 'y-1/4, -x-1/4, z+1/4 '
	 'y-1/4, z-1/4, -x+1/4 '
	 'y, -x+1/2, -z+1/2 '
	 'y, -z, -x '
	 'y+1/4, -z-1/4, x-1/4 '
	 'y+1/4, x+1/4, -z+1/4 '
	 'x+1/2, z, y+1/2 '
	 '-x+1/2, -y+1/2, z '
	 'x-1/4, -z-1/4, y+1/4 '
	 'x-1/4, y-1/4, -z+1/4 '
	 'x, -y, -z '
	 'x, -z+1/2, -y+1/2 '
	 'x+1/4, -y-1/4, z-1/4 '
	 'x+1/4, z+1/4, -y+1/4 '
	 'x, y+1/2, z+1/2 '
	 '-x, z, -y '
	 '-x+1/4, -y-1/4, -z-1/4 '
	 '-x+1/4, -z-1/4, -y-1/4 '
	 '-x+1/2, -z+1/2, y '
	 '-x+1/2, y, -z+1/2 '
	 '-x-1/4, z+1/4, y-1/4 '
	 '-x-1/4, y-1/4, z+1/4 '
	 '-y, -z, x '
	 '-y, x, -z '
	 '-y+1/4, -x-1/4, -z-1/4 '
	 '-y+1/4, -z-1/4, -x-1/4 '
	 '-y+1/2, -x+1/2, z '
	 '-y+1/2, z, -x+1/2 '
	 '-y-1/4, z-1/4, x+1/4 '
	 '-y-1/4, x+1/4, z-1/4 '
	 '-z, -x, y '
	 '-z, y, -x '
	 '-z+1/4, -x-1/4, -y-1/4 '
	 '-z+1/4, -y-1/4, -x-1/4 '
	 '-z+1/2, -y+1/2, x '
	 '-z+1/2, x, -y+1/2 '
	 '-z-1/4, y+1/4, x-1/4 '
	 '-z-1/4, x-1/4, y+1/4 '
	 'z, y+1/2, x+1/2 '
	 'z, x+1/2, y+1/2 '
	 'z+1/4, -y+1/4, x+1/4 '
	 'z+1/4, x+1/4, -y+1/4 '
	 'z+1/2, -x+1/2, -y '
	 'z+1/2, -y, -x+1/2 '
	 'z-1/4, -x+1/4, y-1/4 '
	 'z-1/4, y-1/4, -x+1/4 '
	 'y, z+1/2, x+1/2 '
	 'y, x+1/2, z+1/2 '
	 'y+1/4, -x+1/4, z+1/4 '
	 'y+1/4, z+1/4, -x+1/4 '
	 'y+1/2, -x, -z+1/2 '
	 'y+1/2, -z+1/2, -x '
	 'y-1/4, -z+1/4, x-1/4 '
	 'y-1/4, x-1/4, -z+1/4 '
	 'x, z+1/2, y+1/2 '
	 '-x, -y, z '
	 'x+1/4, -z+1/4, y+1/4 '
	 'x+1/4, y+1/4, -z+1/4 '
	 'x+1/2, -y+1/2, -z '
	 'x+1/2, -z, -y+1/2 '
	 'x-1/4, -y+1/4, z-1/4 '
	 'x-1/4, z-1/4, -y+1/4 '
loop_
_atom_site_label
_atom_site_type_symbol
_atom_site_site_symmetry_multiplicity
_atom_site_fract_x
_atom_site_fract_y
_atom_site_fract_z
_atom_site_occupancy
_atom_site_B_iso_or_equiv
Si1 Si   8 0 0 0 1 0.7486026

data_phase_Al2O3_14
_pd_block_id Al2O3_14
_pd_block_diffractogram_id pattern_14

_pd_phase_name Al2O3_14
_cell_length_a 4.767946
_cell_length_b 4.767946
_cell_length_c 13.01874
_cell_angle_alpha 90
_cell_angle_beta 90
_cell_angle_gamma 120
_cell_volume 256.308
_symmetry_space_group_name_H-M R-3cH
loop_
	_symmetry_equiv_pos_as_xyz
	 'x, y, z '
	 '-x, -y, -z '
	 '-x+y, -x, z '
	 '-x+y, y, z+1/2 '
	 '-y, -x, z+1/2 '
	 '-y, x-y, z '
	 'y, -x+y, -z '
	 'y, x, -z+1/2 '
	 'x-y, -y, -z+1/2 '
	 'x-y, x, -z '
	 '-x, -x+y, -z+1/2 '
	 'x, x-y, z+1/2 '
	 'x-1/3, y+1/3, z+1/3 '
	 '-x-1/3, -y+1/3, -z+1/3 '
	 '-x+y-1/3, -x+1/3, z+1/3 '
	 '-x+y-1/3, y+1/3, z-1/6 '
	 '-y-1/3, -x+1/3, z-1/6 '
	 '-y-1/3, x-y+1/3, z+1/3 '
	 'y-1/3, -x+y+1/3, -z+1/3 '
	 'y-1/3, x+1/3, -z-1/6 '
	 'x-y-1/3, -y+1/3, -z-1/6 '
	 'x-y-1/3, x+1/3, -z+1/3 '
	 '-x-1/3, -x+y+1/3, -z-1/6 '
	 'x-1/3, x-y+1/3, z-1/6 '
	 'x+1/3, y-1/3, z-1/3 '
	 '-x+1/3, -y-1/3, -z-1/3 '
	 '-x+y+1/3, -x-1/3, z-1/3 '
	 '-x+y+1/3, y-1/3, z+1/6 '
	 '-y+1/3, -x-1/3, z+1/6 '
	 '-y+1/3, x-y-1/3, z-1/3 '
	 'y+1/3, -x+y-1/3, -z-1/3 '
	 'y+1/3, x-1/3, -z+1/6 '
	 'x-y+1/3, -y-1/3, -z+1/6 '
	 'x-y+1/3, x-1/3, -z-1/3 '
	 '-x+1/3, -x+y-1/3, -z+1/6 '
	 'x+1/3, x-y-1/3, z+1/6 '
loop_
_atom_site_label
_atom_site_type_symbol
_atom_site_site_symmetry_multiplicity
_atom_site_fract_x
_atom_site_fract_y
_atom_site_fract_z
_atom_site_occupancy
_atom_site_B_iso_or_equiv
Al1 Al+3  12 0 0 0.148 1 0.4707166
O1 O-2  18 0.306 0 0.25 1 0.4707166

data_phase_Si_14
_pd_block_id Si_14
_pd_block_diffractogram_id pattern_14

_pd_phase_name Si_14
_cell_length_a 5.436094
_cell_length_b 5.436094
_cell_length_c 5.436094
_cell_angle_alpha 90
_cell_angle_beta 90
_cell_angle_gamma 90
_cell_volume 160.6427
_symmetry_space_group_name_H-M Fd-3mS
loop_
	_symmetry_equiv_pos_as_xyz
	 'x, y, z '
	 '-x, z+1/2, -y+1/2 '
	 '-x+1/4, -y+1/4, -z+1/4 '
	 '-x+1/4, -z+1/4, -y+1/4 '
	 '-x+1/2, -z, y+1/2 '
	 '-x+1/2, y+1/2, -z '
	 '-x-1/4, z-1/4, y+1/4 '
	 '-x-1/4, y+1/4, z-1/4 '
	 '-y, -z+1/2, x+1/2 '
	 '-y, x+1/2, -z+1/2 '
	 '-y+1/4, -x+1/4, -z+1/4 '
	 '-y+1/4, -z+1/4, -x+1/4 '
	 '-y+1/2, -x, z+1/2 '
	 '-y+1/2, z+1/2, -x '
	 '-y-1/4, z+1/4, x-1/4 '
	 '-y-1/4, x-1/4, z+1/4 '
	 '-z, -x+1/2, y+1/2 '
	 '-z, y+1/2, -x+1/2 '
	 '-z+1/4, -x+1/4, -y+1/4 '
	 '-z+1/4, -y+1/4, -x+1/4 '
	 '-z+1/2, -y, x+1/2 '
	 '-z+1/2, x+1/2, -y '
	 '-z-1/4, y-1/4, x+1/4 '
	 '-z-1/4, x+1/4, y-1/4 '
	 'z, y, x '
	 'z, x, y '
	 'z+1/4, -y-1/4, x-1/4 '
	 'z+1/4, x-1/4, -y-1/4 '
	 'z+1/2, -x, -y+1/2 '
	 'z+1/2, -y+1/2, -x '
	 'z-1/4, -x-1/4, y+1/4 '
	 'z-1/4, y+1/4, -x-1/4 '
	 'y, z, x '
	 'y, x, z '
	 'y+1/4, -x-1/4, z-1/4 '
	 'y+1/4, z-1/4, -x-1/4 '
	 'y+1/2, -x+1/2, -z '
	 'y+1/2, -z, -x+1/2 '
	 'y-1/4, -z-1/4, x+1/4 '
	 'y-1/4, x+1/4, -z-1/4 '
	 'x, z, y '
	 '-x, -y+1/2, z+1/2 '
	 'x+1/4, -z-1/4, y-1/4 '
	 'x+1/4, y-1/4, -z-1/4 '
	 'x+1/2, -y, -z+1/2 '
	 'x+1/2, -z+1/2, -y '
	 'x-1/4, -y-1/4, z+1/4 '
	 'x-1/4, z+1/4, -y-1/4 '
	 'x+1/2, y+1/2, z '
	 '-x+1/2, z, -y+1/2 '
	 '-x-1/4, -y-1/4, -z+1/4 '
	 '-x-1/4, -z-1/4, -y+1/4 '
	 '-x, -z+1/2, y+1/2 '
	 '-x, y, -z '
	 '-x+1/4, z+1/4, y+1/4 '
	 '-x+1/4, y-1/4, z-1/4 '
	 '-y+1/2, -z, x+1/2 '
	 '-y+1/2, x, -z+1/2 '
	 '-y-1/4, -x-1/4, -z+1/4 '
	 '-y-1/4, -z-1/4, -x+1/4 '
	 '-y, -x+1/2, z+1/2 '
	 '-y, z, -x '
	 '-y+1/4, z-1/4, x-1/4 '
	 '-y+1/4, x+1/4, z+1/4 '
	 '-z+1/2, -x, y+1/2 '
	 '-z+1/2, y, -x+1/2 '
	 '-z-1/4, -x-1/4, -y+1/4 '
	 '-z-1/4, -y-1/4, -x+1/4 '
	 '-z, -y+1/2, x+1/2 '
	 '-z, x, -y '
	 '-z+1/4, y+1/4, x+1/4 '
	 '-z+1/4, x-1/4, y-1/4 '
	 'z+1/2, y+1/2, x '
	 'z+1/2, x+1/2, y '
	 'z-1/4, -y+1/4, x-1/4 '
	 'z-1/4, x+1/4, -y-1/4 '
	 'z, -x+1/2, -y+1/2 '
	 'z, -y, -x '
	 'z+1/4, -x+1/4, y+1/4 '
	 'z+1/4, y-1/4, -x-1/4 '
	 'y+1/2, z+1/2, x '
	 'y+1/2, x+1/2, z '
	 'y-1/4, -x+1/4, z-1/4 '
	 'y-1/4, z+1/4, -x-1/4 '
	 'y, -x, -z '
	 'y, -z+1/2, -x+1/2 '
	 'y+1/4, -z+1/4, x+1/4 '
	 'y+1/4, x-1/4, -z-1/4 '
	 'x+1/2, z+1/2, y '
	 '-x+1/2, -y, z+1/2 '
	 'x-1/4, -z+1/4, y-1/4 '
	 'x-1/4, y+1/4, -z-1/4 '
	 'x, -y+1/2, -z+1/2 '
	 'x, -z, -y '
	 'x+1/4, -y+1/4, z+1/4 '
	 'x+1/4, z-1/4, -y-1/4 '
	 'x+1/2, y, z+1/2 '
	 '-x+1/2, z+1/2, -y '
	 '-x-1/4, -y+1/4, -z-1/4 '
	 '-x-1/4, -z+1/4, -y-1/4 '
	 '-x, -z, y '
	 '-x, y+1/2, -z+1/2 '
	 '-x+1/4, z-1/4, y-1/4 '
	 '-x+1/4, y+1/4, z+1/4 '
	 '-y+1/2, -z+1/2, x '
	 '-y+1/2, x+1/2, -z '
	 '-y-1/4, -x+1/4, -z-1/4 '
	 '-y-1/4, -z+1/4, -x-1/4 '
	 '-y, -x, z '
	 '-y, z+1/2, -x+1/2 '
	 '-y+1/4, z+1/4, x+1/4 '
	 '-y+1/4, x-1/4, z-1/4 '
	 '-z+1/2, -x+1/2, y '
	 '-z+1/2, y+1/2, -x '
	 '-z-1/4, -x+1/4, -y-1/4 '
	 '-z-1/4, -y+1/4, -x-1/4 '
	 '-z, -y, x '
	 '-z, x+1/2, -y+1/2 '
	 '-z+1/4, y-1/4, x-1/4 '
	 '-z+1/4, x+1/4, y+1/4 '
	 'z+1/2, y, x+1/2 '
	 'z+1/2, x, y+1/2 '
	 'z-1/4, -y-1/4, x+1/4 '
	 'z-1/4, x-1/4, -y+1/4 '
	 'z, -x, -y '
	 'z, -y+1/2, -x+1/2 '
	 'z+1/4, -x-1/4, y-1/4 '
	 'z+1/4, y+1/4, -x+1/4 '
	 'y+1/2, z, x+1/2 '
	 'y+1/2, x, z+1/2 '
	 'y-1/4, -x-1/4, z+1/4 '
	 'y-1/4, z-1/4, -x+1/4 '
	 'y, -x+1/2, -z+1/2 '
	 'y, -z, -x '
	 'y+1/4, -z-1/4, x-1/4 '
	 'y+1/4, x+1/4, -z+1/4 '
	 'x+1/2, z, y+1/2 '
	 '-x+1/2, -y+1/2, z '
	 'x-1/4, -z-1/4, y+1/4 '
	 'x-1/4, y-1/4, -z+1/4 '
	 'x, -y, -z '
	 'x, -z+1/2, -y+1/2 '
	 'x+1/4, -y-1/4, z-1/4 '
	 'x+1/4, z+1/4, -y+1/4 '
	 'x, y+1/2, z+1/2 '
	 '-x, z, -y '
	 '-x+1/4, -y-1/4, -z-1/4 '
	 '-x+1/4, -z-1/4, -y-1/4 '
	 '-x+1/2, -z+1/2, y '
	 '-x+1/2, y, -z+1/2 '
	 '-x-1/4, z+1/4, y-1/4 '
	 '-x-1/4, y-1/4, z+1/4 '
	 '-y, -z, x '
	 '-y, x, -z '
	 '-y+1/4, -x-1/4, -z-1/4 '
	 '-y+1/4, -z-1/4, -x-1/4 '
	 '-y+1/2, -x+1/2, z '
	 '-y+1/2, z, -x+1/2 '
	 '-y-1/4, z-1/4, x+1/4 '
	 '-y-1/4, x+1/4, z-1/4 '
	 '-z, -x, y '
	 '-z, y, -x '
	 '-z+1/4, -x-1/4, -y-1/4 '
	 '-z+1/4, -y-1/4, -x-1/4 '
	 '-z+1/2, -y+1/2, x '
	 '-z+1/2, x, -y+1/2 '
	 '-z-1/4, y+1/4, x-1/4 '
	 '-z-1/4, x-1/4, y+1/4 '
	 'z, y+1/2, x+1/2 '
	 'z, x+1/2, y+1/2 '
	 'z+1/4, -y+1/4, x+1/4 '
	 'z+1/4, x+1/4, -y+1/4 '
	 'z+1/2, -x+1/2, -y '
	 'z+1/2, -y, -x+1/2 '
	 'z-1/4, -x+1/4, y-1/4 '
	 'z-1/4, y-1/4, -x+1/4 '
	 'y, z+1/2, x+1/2 '
	 'y, x+1/2, z+1/2 '
	 'y+1/4, -x+1/4, z+1/4 '
	 'y+1/4, z+1/4, -x+1/4 '
	 'y+1/2, -x, -z+1/2 '
	 'y+1/2, -z+1/2, -x '
	 'y-1/4, -z+1/4, x-1/4 '
	 'y-1/4, x-1/4, -z+1/4 '
	 'x, z+1/2, y+1/2 '
	 '-x, -y, z '
	 'x+1/4, -z+1/4, y+1/4 '
	 'x+1/4, y+1/4, -z+1/4 '
	 'x+1/2, -y+1/2, -z '
	 'x+1/2, -z, -y+1/2 '
	 'x-1/4, -y+1/4, z-1/4 '
	 'x-1/4, z-1/4, -y+1/4 '
loop_
_atom_site_label
_atom_site_type_symbol
_atom_site_site_symmetry_multiplicity
_atom_site_fract_x
_atom_site_fract_y
_atom_site_fract_z
_atom_site_occupancy
_atom_site_B_iso_or_equiv
Si1 Si   8 0 0 0 1 0.7947384

data_phase_Al2O3_15
_pd_block_id Al2O3_15
_pd_block_diffractogram_id pattern_15

_pd_phase_name Al2O3_15
_cell_length_a 4.768675
_cell_length_b 4.768675
_cell_length_c 13.02092
_cell_angle_alpha 90
_cell_angle_beta 90
_cell_angle_gamma 120
_cell_volume 256.4293
_symmetry_space_group_name_H-M R-3cH
loop_
	_symmetry_equiv_pos_as_xyz
	 'x, y, z '
	 '-x, -y, -z '
	 '-x+y, -x, z '
	 '-x+y, y, z+1/2 '
	 '-y, -x, z+1/2 '
	 '-y, x-y, z '
	 'y, -x+y, -z '
	 'y, x, -z+1/2 '
	 'x-y, -y, -z+1/2 '
	 'x-y, x, -z '
	 '-x, -x+y, -z+1/2 '
	 'x, x-y, z+1/2 '
	 'x-1/3, y+1/3, z+1/3 '
	 '-x-1/3, -y+1/3, -z+1/3 '
	 '-x+y-1/3, -x+1/3, z+1/3 '
	 '-x+y-1/3, y+1/3, z-1/6 '
	 '-y-1/3, -x+1/3, z-1/6 '
	 '-y-1/3, x-y+1/3, z+1/3 '
	 'y-1/3, -x+y+1/3, -z+1/3 '
	 'y-1/3, x+1/3, -z-1/6 '
	 'x-y-1/3, -y+1/3, -z-1/6 '
	 'x-y-1/3, x+1/3, -z+1/3 '
	 '-x-1/3, -x+y+1/3, -z-1/6 '
	 'x-1/3, x-y+1/3, z-1/6 '
	 'x+1/3, y-1/3, z-1/3 '
	 '-x+1/3, -y-1/3, -z-1/3 '
	 '-x+y+1/3, -x-1/3, z-1/3 '
	 '-x+y+1/3, y-1/3, z+1/6 '
	 '-y+1/3, -x-1/3, z+1/6 '
	 '-y+1/3, x-y-1/3, z-1/3 '
	 'y+1/3, -x+y-1/3, -z-1/3 '
	 'y+1/3, x-1/3, -z+1/6 '
	 'x-y+1/3, -y-1/3, -z+1/6 '
	 'x-y+1/3, x-1/3, -z-1/3 '
	 '-x+1/3, -x+y-1/3, -z+1/6 '
	 'x+1/3, x-y-1/3, z+1/6 '
loop_
_atom_site_label
_atom_site_type_symbol
_atom_site_site_symmetry_multiplicity
_atom_site_fract_x
_atom_site_fract_y
_atom_site_fract_z
_atom_site_occupancy
_atom_site_B_iso_or_equiv
Al1 Al+3  12 0 0 0.148 1 0.4998157
O1 O-2  18 0.306 0 0.25 1 0.4998157

data_phase_Si_15
_pd_block_id Si_15
_pd_block_diffractogram_id pattern_15

_pd_phase_name Si_15
_cell_length_a 5.436509
_cell_length_b 5.436509
_cell_length_c 5.436509
_cell_angle_alpha 90
_cell_angle_beta 90
_cell_angle_gamma 90
_cell_volume 160.6795
_symmetry_space_group_name_H-M Fd-3mS
loop_
	_symmetry_equiv_pos_as_xyz
	 'x, y, z '
	 '-x, z+1/2, -y+1/2 '
	 '-x+1/4, -y+1/4, -z+1/4 '
	 '-x+1/4, -z+1/4, -y+1/4 '
	 '-x+1/2, -z, y+1/2 '
	 '-x+1/2, y+1/2, -z '
	 '-x-1/4, z-1/4, y+1/4 '
	 '-x-1/4, y+1/4, z-1/4 '
	 '-y, -z+1/2, x+1/2 '
	 '-y, x+1/2, -z+1/2 '
	 '-y+1/4, -x+1/4, -z+1/4 '
	 '-y+1/4, -z+1/4, -x+1/4 '
	 '-y+1/2, -x, z+1/2 '
	 '-y+1/2, z+1/2, -x '
	 '-y-1/4, z+1/4, x-1/4 '
	 '-y-1/4, x-1/4, z+1/4 '
	 '-z, -x+1/2, y+1/2 '
	 '-z, y+1/2, -x+1/2 '
	 '-z+1/4, -x+1/4, -y+1/4 '
	 '-z+1/4, -y+1/4, -x+1/4 '
	 '-z+1/2, -y, x+1/2 '
	 '-z+1/2, x+1/2, -y '
	 '-z-1/4, y-1/4, x+1/4 '
	 '-z-1/4, x+1/4, y-1/4 '
	 'z, y, x '
	 'z, x, y '
	 'z+1/4, -y-1/4, x-1/4 '
	 'z+1/4, x-1/4, -y-1/4 '
	 'z+1/2, -x, -y+1/2 '
	 'z+1/2, -y+1/2, -x '
	 'z-1/4, -x-1/4, y+1/4 '
	 'z-1/4, y+1/4, -x-1/4 '
	 'y, z, x '
	 'y, x, z '
	 'y+1/4, -x-1/4, z-1/4 '
	 'y+1/4, z-1/4, -x-1/4 '
	 'y+1/2, -x+1/2, -z '
	 'y+1/2, -z, -x+1/2 '
	 'y-1/4, -z-1/4, x+1/4 '
	 'y-1/4, x+1/4, -z-1/4 '
	 'x, z, y '
	 '-x, -y+1/2, z+1/2 '
	 'x+1/4, -z-1/4, y-1/4 '
	 'x+1/4, y-1/4, -z-1/4 '
	 'x+1/2, -y, -z+1/2 '
	 'x+1/2, -z+1/2, -y '
	 'x-1/4, -y-1/4, z+1/4 '
	 'x-1/4, z+1/4, -y-1/4 '
	 'x+1/2, y+1/2, z '
	 '-x+1/2, z, -y+1/2 '
	 '-x-1/4, -y-1/4, -z+1/4 '
	 '-x-1/4, -z-1/4, -y+1/4 '
	 '-x, -z+1/2, y+1/2 '
	 '-x, y, -z '
	 '-x+1/4, z+1/4, y+1/4 '
	 '-x+1/4, y-1/4, z-1/4 '
	 '-y+1/2, -z, x+1/2 '
	 '-y+1/2, x, -z+1/2 '
	 '-y-1/4, -x-1/4, -z+1/4 '
	 '-y-1/4, -z-1/4, -x+1/4 '
	 '-y, -x+1/2, z+1/2 '
	 '-y, z, -x '
	 '-y+1/4, z-1/4, x-1/4 '
	 '-y+1/4, x+1/4, z+1/4 '
	 '-z+1/2, -x, y+1/2 '
	 '-z+1/2, y, -x+1/2 '
	 '-z-1/4, -x-1/4, -y+1/4 '
	 '-z-1/4, -y-1/4, -x+1/4 '
	 '-z, -y+1/2, x+1/2 '
	 '-z, x, -y '
	 '-z+1/4, y+1/4, x+1/4 '
	 '-z+1/4, x-1/4, y-1/4 '
	 'z+1/2, y+1/2, x '
	 'z+1/2, x+1/2, y '
	 'z-1/4, -y+1/4, x-1/4 '
	 'z-1/4, x+1/4, -y-1/4 '
	 'z, -x+1/2, -y+1/2 '
	 'z, -y, -x '
	 'z+1/4, -x+1/4, y+1/4 '
	 'z+1/4, y-1/4, -x-1/4 '
	 'y+1/2, z+1/2, x '
	 'y+1/2, x+1/2, z '
	 'y-1/4, -x+1/4, z-1/4 '
	 'y-1/4, z+1/4, -x-1/4 '
	 'y, -x, -z '
	 'y, -z+1/2, -x+1/2 '
	 'y+1/4, -z+1/4, x+1/4 '
	 'y+1/4, x-1/4, -z-1/4 '
	 'x+1/2, z+1/2, y '
	 '-x+1/2, -y, z+1/2 '
	 'x-1/4, -z+1/4, y-1/4 '
	 'x-1/4, y+1/4, -z-1/4 '
	 'x, -y+1/2, -z+1/2 '
	 'x, -z, -y '
	 'x+1/4, -y+1/4, z+1/4 '
	 'x+1/4, z-1/4, -y-1/4 '
	 'x+1/2, y, z+1/2 '
	 '-x+1/2, z+1/2, -y '
	 '-x-1/4, -y+1/4, -z-1/4 '
	 '-x-1/4, -z+1/4, -y-1/4 '
	 '-x, -z, y '
	 '-x, y+1/2, -z+1/2 '
	 '-x+1/4, z-1/4, y-1/4 '
	 '-x+1/4, y+1/4, z+1/4 '
	 '-y+1/2, -z+1/2, x '
	 '-y+1/2, x+1/2, -z '
	 '-y-1/4, -x+1/4, -z-1/4 '
	 '-y-1/4, -z+1/4, -x-1/4 '
	 '-y, -x, z '
	 '-y, z+1/2, -x+1/2 '
	 '-y+1/4, z+1/4, x+1/4 '
	 '-y+1/4, x-1/4, z-1/4 '
	 '-z+1/2, -x+1/2, y '
	 '-z+1/2, y+1/2, -x '
	 '-z-1/4, -x+1/4, -y-1/4 '
	 '-z-1/4, -y+1/4, -x-1/4 '
	 '-z, -y, x '
	 '-z, x+1/2, -y+1/2 '
	 '-z+1/4, y-1/4, x-1/4 '
	 '-z+1/4, x+1/4, y+1/4 '
	 'z+1/2, y, x+1/2 '
	 'z+1/2, x, y+1/2 '
	 'z-1/4, -y-1/4, x+1/4 '
	 'z-1/4, x-1/4, -y+1/4 '
	 'z, -x, -y '
	 'z, -y+1/2, -x+1/2 '
	 'z+1/4, -x-1/4, y-1/4 '
	 'z+1/4, y+1/4, -x+1/4 '
	 'y+1/2, z, x+1/2 '
	 'y+1/2, x, z+1/2 '
	 'y-1/4, -x-1/4, z+1/4 '
	 'y-1/4, z-1/4, -x+1/4 '
	 'y, -x+1/2, -z+1/2 '
	 'y, -z, -x '
	 'y+1/4, -z-1/4, x-1/4 '
	 'y+1/4, x+1/4, -z+1/4 '
	 'x+1/2, z, y+1/2 '
	 '-x+1/2, -y+1/2, z '
	 'x-1/4, -z-1/4, y+1/4 '
	 'x-1/4, y-1/4, -z+1/4 '
	 'x, -y, -z '
	 'x, -z+1/2, -y+1/2 '
	 'x+1/4, -y-1/4, z-1/4 '
	 'x+1/4, z+1/4, -y+1/4 '
	 'x, y+1/2, z+1/2 '
	 '-x, z, -y '
	 '-x+1/4, -y-1/4, -z-1/4 '
	 '-x+1/4, -z-1/4, -y-1/4 '
	 '-x+1/2, -z+1/2, y '
	 '-x+1/2, y, -z+1/2 '
	 '-x-1/4, z+1/4, y-1/4 '
	 '-x-1/4, y-1/4, z+1/4 '
	 '-y, -z, x '
	 '-y, x, -z '
	 '-y+1/4, -x-1/4, -z-1/4 '
	 '-y+1/4, -z-1/4, -x-1/4 '
	 '-y+1/2, -x+1/2, z '
	 '-y+1/2, z, -x+1/2 '
	 '-y-1/4, z-1/4, x+1/4 '
	 '-y-1/4, x+1/4, z-1/4 '
	 '-z, -x, y '
	 '-z, y, -x '
	 '-z+1/4, -x-1/4, -y-1/4 '
	 '-z+1/4, -y-1/4, -x-1/4 '
	 '-z+1/2, -y+1/2, x '
	 '-z+1/2, x, -y+1/2 '
	 '-z-1/4, y+1/4, x-1/4 '
	 '-z-1/4, x-1/4, y+1/4 '
	 'z, y+1/2, x+1/2 '
	 'z, x+1/2, y+1/2 '
	 'z+1/4, -y+1/4, x+1/4 '
	 'z+1/4, x+1/4, -y+1/4 '
	 'z+1/2, -x+1/2, -y '
	 'z+1/2, -y, -x+1/2 '
	 'z-1/4, -x+1/4, y-1/4 '
	 'z-1/4, y-1/4, -x+1/4 '
	 'y, z+1/2, x+1/2 '
	 'y, x+1/2, z+1/2 '
	 'y+1/4, -x+1/4, z+1/4 '
	 'y+1/4, z+1/4, -x+1/4 '
	 'y+1/2, -x, -z+1/2 '
	 'y+1/2, -z+1/2, -x '
	 'y-1/4, -z+1/4, x-1/4 '
	 'y-1/4, x-1/4, -z+1/4 '
	 'x, z+1/2, y+1/2 '
	 '-x, -y, z '
	 'x+1/4, -z+1/4, y+1/4 '
	 'x+1/4, y+1/4, -z+1/4 '
	 'x+1/2, -y+1/2, -z '
	 'x+1/2, -z, -y+1/2 '
	 'x-1/4, -y+1/4, z-1/4 '
	 'x-1/4, z-1/4, -y+1/4 '
loop_
_atom_site_label
_atom_site_type_symbol
_atom_site_site_symmetry_multiplicity
_atom_site_fract_x
_atom_site_fract_y
_atom_site_fract_z
_atom_site_occupancy
_atom_site_B_iso_or_equiv
Si1 Si   8 0 0 0 1 0.8434295

data_phase_Al2O3_16
_pd_block_id Al2O3_16
_pd_block_diffractogram_id pattern_16

_pd_phase_name Al2O3_16
_cell_length_a 4.769365
_cell_length_b 4.769365
_cell_length_c 13.02314
_cell_angle_alpha 90
_cell_angle_beta 90
_cell_angle_gamma 120
_cell_volume 256.5472
_symmetry_space_group_name_H-M R-3cH
loop_
	_symmetry_equiv_pos_as_xyz
	 'x, y, z '
	 '-x, -y, -z '
	 '-x+y, -x, z '
	 '-x+y, y, z+1/2 '
	 '-y, -x, z+1/2 '
	 '-y, x-y, z '
	 'y, -x+y, -z '
	 'y, x, -z+1/2 '
	 'x-y, -y, -z+1/2 '
	 'x-y, x, -z '
	 '-x, -x+y, -z+1/2 '
	 'x, x-y, z+1/2 '
	 'x-1/3, y+1/3, z+1/3 '
	 '-x-1/3, -y+1/3, -z+1/3 '
	 '-x+y-1/3, -x+1/3, z+1/3 '
	 '-x+y-1/3, y+1/3, z-1/6 '
	 '-y-1/3, -x+1/3, z-1/6 '
	 '-y-1/3, x-y+1/3, z+1/3 '
	 'y-1/3, -x+y+1/3, -z+1/3 '
	 'y-1/3, x+1/3, -z-1/6 '
	 'x-y-1/3, -y+1/3, -z-1/6 '
	 'x-y-1/3, x+1/3, -z+1/3 '
	 '-x-1/3, -x+y+1/3, -z-1/6 '
	 'x-1/3, x-y+1/3, z-1/6 '
	 'x+1/3, y-1/3, z-1/3 '
	 '-x+1/3, -y-1/3, -z-1/3 '
	 '-x+y+1/3, -x-1/3, z-1/3 '
	 '-x+y+1/3, y-1/3, z+1/6 '
	 '-y+1/3, -x-1/3, z+1/6 '
	 '-y+1/3, x-y-1/3, z-1/3 '
	 'y+1/3, -x+y-1/3, -z-1/3 '
	 'y+1/3, x-1/3, -z+1/6 '
	 'x-y+1/3, -y-1/3, -z+1/6 '
	 'x-y+1/3, x-1/3, -z-1/3 '
	 '-x+1/3, -x+y-1/3, -z+1/6 '
	 'x+1/3, x-y-1/3, z+1/6 '
loop_
_atom_site_label
_atom_site_type_symbol
_atom_site_site_symmetry_multiplicity
_atom_site_fract_x
_atom_site_fract_y
_atom_site_fract_z
_atom_site_occupancy
_atom_site_B_iso_or_equiv
Al1 Al+3  12 0 0 0.148 1 0.4892966
O1 O-2  18 0.306 0 0.25 1 0.4892966

data_phase_Si_16
_pd_block_id Si_16
_pd_block_diffractogram_id pattern_16

_pd_phase_name Si_16
_cell_length_a 5.43692
_cell_length_b 5.43692
_cell_length_c 5.43692
_cell_angle_alpha 90
_cell_angle_beta 90
_cell_angle_gamma 90
_cell_volume 160.7159
_symmetry_space_group_name_H-M Fd-3mS
loop_
	_symmetry_equiv_pos_as_xyz
	 'x, y, z '
	 '-x, z+1/2, -y+1/2 '
	 '-x+1/4, -y+1/4, -z+1/4 '
	 '-x+1/4, -z+1/4, -y+1/4 '
	 '-x+1/2, -z, y+1/2 '
	 '-x+1/2, y+1/2, -z '
	 '-x-1/4, z-1/4, y+1/4 '
	 '-x-1/4, y+1/4, z-1/4 '
	 '-y, -z+1/2, x+1/2 '
	 '-y, x+1/2, -z+1/2 '
	 '-y+1/4, -x+1/4, -z+1/4 '
	 '-y+1/4, -z+1/4, -x+1/4 '
	 '-y+1/2, -x, z+1/2 '
	 '-y+1/2, z+1/2, -x '
	 '-y-1/4, z+1/4, x-1/4 '
	 '-y-1/4, x-1/4, z+1/4 '
	 '-z, -x+1/2, y+1/2 '
	 '-z, y+1/2, -x+1/2 '
	 '-z+1/4, -x+1/4, -y+1/4 '
	 '-z+1/4, -y+1/4, -x+1/4 '
	 '-z+1/2, -y, x+1/2 '
	 '-z+1/2, x+1/2, -y '
	 '-z-1/4, y-1/4, x+1/4 '
	 '-z-1/4, x+1/4, y-1/4 '
	 'z, y, x '
	 'z, x, y '
	 'z+1/4, -y-1/4, x-1/4 '
	 'z+1/4, x-1/4, -y-1/4 '
	 'z+1/2, -x, -y+1/2 '
	 'z+1/2, -y+1/2, -x '
	 'z-1/4, -x-1/4, y+1/4 '
	 'z-1/4, y+1/4, -x-1/4 '
	 'y, z, x '
	 'y, x, z '
	 'y+1/4, -x-1/4, z-1/4 '
	 'y+1/4, z-1/4, -x-1/4 '
	 'y+1/2, -x+1/2, -z '
	 'y+1/2, -z, -x+1/2 '
	 'y-1/4, -z-1/4, x+1/4 '
	 'y-1/4, x+1/4, -z-1/4 '
	 'x, z, y '
	 '-x, -y+1/2, z+1/2 '
	 'x+1/4, -z-1/4, y-1/4 '
	 'x+1/4, y-1/4, -z-1/4 '
	 'x+1/2, -y, -z+1/2 '
	 'x+1/2, -z+1/2, -y '
	 'x-1/4, -y-1/4, z+1/4 '
	 'x-1/4, z+1/4, -y-1/4 '
	 'x+1/2, y+1/2, z '
	 '-x+1/2, z, -y+1/2 '
	 '-x-1/4, -y-1/4, -z+1/4 '
	 '-x-1/4, -z-1/4, -y+1/4 '
	 '-x, -z+1/2, y+1/2 '
	 '-x, y, -z '
	 '-x+1/4, z+1/4, y+1/4 '
	 '-x+1/4, y-1/4, z-1/4 '
	 '-y+1/2, -z, x+1/2 '
	 '-y+1/2, x, -z+1/2 '
	 '-y-1/4, -x-1/4, -z+1/4 '
	 '-y-1/4, -z-1/4, -x+1/4 '
	 '-y, -x+1/2, z+1/2 '
	 '-y, z, -x '
	 '-y+1/4, z-1/4, x-1/4 '
	 '-y+1/4, x+1/4, z+1/4 '
	 '-z+1/2, -x, y+1/2 '
	 '-z+1/2, y, -x+1/2 '
	 '-z-1/4, -x-1/4, -y+1/4 '
	 '-z-1/4, -y-1/4, -x+1/4 '
	 '-z, -y+1/2, x+1/2 '
	 '-z, x, -y '
	 '-z+1/4, y+1/4, x+1/4 '
	 '-z+1/4, x-1/4, y-1/4 '
	 'z+1/2, y+1/2, x '
	 'z+1/2, x+1/2, y '
	 'z-1/4, -y+1/4, x-1/4 '
	 'z-1/4, x+1/4, -y-1/4 '
	 'z, -x+1/2, -y+1/2 '
	 'z, -y, -x '
	 'z+1/4, -x+1/4, y+1/4 '
	 'z+1/4, y-1/4, -x-1/4 '
	 'y+1/2, z+1/2, x '
	 'y+1/2, x+1/2, z '
	 'y-1/4, -x+1/4, z-1/4 '
	 'y-1/4, z+1/4, -x-1/4 '
	 'y, -x, -z '
	 'y, -z+1/2, -x+1/2 '
	 'y+1/4, -z+1/4, x+1/4 '
	 'y+1/4, x-1/4, -z-1/4 '
	 'x+1/2, z+1/2, y '
	 '-x+1/2, -y, z+1/2 '
	 'x-1/4, -z+1/4, y-1/4 '
	 'x-1/4, y+1/4, -z-1/4 '
	 'x, -y+1/2, -z+1/2 '
	 'x, -z, -y '
	 'x+1/4, -y+1/4, z+1/4 '
	 'x+1/4, z-1/4, -y-1/4 '
	 'x+1/2, y, z+1/2 '
	 '-x+1/2, z+1/2, -y '
	 '-x-1/4, -y+1/4, -z-1/4 '
	 '-x-1/4, -z+1/4, -y-1/4 '
	 '-x, -z, y '
	 '-x, y+1/2, -z+1/2 '
	 '-x+1/4, z-1/4, y-1/4 '
	 '-x+1/4, y+1/4, z+1/4 '
	 '-y+1/2, -z+1/2, x '
	 '-y+1/2, x+1/2, -z '
	 '-y-1/4, -x+1/4, -z-1/4 '
	 '-y-1/4, -z+1/4, -x-1/4 '
	 '-y, -x, z '
	 '-y, z+1/2, -x+1/2 '
	 '-y+1/4, z+1/4, x+1/4 '
	 '-y+1/4, x-1/4, z-1/4 '
	 '-z+1/2, -x+1/2, y '
	 '-z+1/2, y+1/2, -x '
	 '-z-1/4, -x+1/4, -y-1/4 '
	 '-z-1/4, -y+1/4, -x-1/4 '
	 '-z, -y, x '
	 '-z, x+1/2, -y+1/2 '
	 '-z+1/4, y-1/4, x-1/4 '
	 '-z+1/4, x+1/4, y+1/4 '
	 'z+1/2, y, x+1/2 '
	 'z+1/2, x, y+1/2 '
	 'z-1/4, -y-1/4, x+1/4 '
	 'z-1/4, x-1/4, -y+1/4 '
	 'z, -x, -y '
	 'z, -y+1/2, -x+1/2 '
	 'z+1/4, -x-1/4, y-1/4 '
	 'z+1/4, y+1/4, -x+1/4 '
	 'y+1/2, z, x+1/2 '
	 'y+1/2, x, z+1/2 '
	 'y-1/4, -x-1/4, z+1/4 '
	 'y-1/4, z-1/4, -x+1/4 '
	 'y, -x+1/2, -z+1/2 '
	 'y, -z, -x '
	 'y+1/4, -z-1/4, x-1/4 '
	 'y+1/4, x+1/4, -z+1/4 '
	 'x+1/2, z, y+1/2 '
	 '-x+1/2, -y+1/2, z '
	 'x-1/4, -z-1/4, y+1/4 '
	 'x-1/4, y-1/4, -z+1/4 '
	 'x, -y, -z '
	 'x, -z+1/2, -y+1/2 '
	 'x+1/4, -y-1/4, z-1/4 '
	 'x+1/4, z+1/4, -y+1/4 '
	 'x, y+1/2, z+1/2 '
	 '-x, z, -y '
	 '-x+1/4, -y-1/4, -z-1/4 '
	 '-x+1/4, -z-1/4, -y-1/4 '
	 '-x+1/2, -z+1/2, y '
	 '-x+1/2, y, -z+1/2 '
	 '-x-1/4, z+1/4, y-1/4 '
	 '-x-1/4, y-1/4, z+1/4 '
	 '-y, -z, x '
	 '-y, x, -z '
	 '-y+1/4, -x-1/4, -z-1/4 '
	 '-y+1/4, -z-1/4, -x-1/4 '
	 '-y+1/2, -x+1/2, z '
	 '-y+1/2, z, -x+1/2 '
	 '-y-1/4, z-1/4, x+1/4 '
	 '-y-1/4, x+1/4, z-1/4 '
	 '-z, -x, y '
	 '-z, y, -x '
	 '-z+1/4, -x-1/4, -y-1/4 '
	 '-z+1/4, -y-1/4, -x-1/4 '
	 '-z+1/2, -y+1/2, x '
	 '-z+1/2, x, -y+1/2 '
	 '-z-1/4, y+1/4, x-1/4 '
	 '-z-1/4, x-1/4, y+1/4 '
	 'z, y+1/2, x+1/2 '
	 'z, x+1/2, y+1/2 '
	 'z+1/4, -y+1/4, x+1/4 '
	 'z+1/4, x+1/4, -y+1/4 '
	 'z+1/2, -x+1/2, -y '
	 'z+1/2, -y, -x+1/2 '
	 'z-1/4, -x+1/4, y-1/4 '
	 'z-1/4, y-1/4, -x+1/4 '
	 'y, z+1/2, x+1/2 '
	 'y, x+1/2, z+1/2 '
	 'y+1/4, -x+1/4, z+1/4 '
	 'y+1/4, z+1/4, -x+1/4 '
	 'y+1/2, -x, -z+1/2 '
	 'y+1/2, -z+1/2, -x '
	 'y-1/4, -z+1/4, x-1/4 '
	 'y-1/4, x-1/4, -z+1/4 '
	 'x, z+1/2, y+1/2 '
	 '-x, -y, z '
	 'x+1/4, -z+1/4, y+1/4 '
	 'x+1/4, y+1/4, -z+1/4 '
	 'x+1/2, -y+1/2, -z '
	 'x+1/2, -z, -y+1/2 '
	 'x-1/4, -y+1/4, z-1/4 '
	 'x-1/4, z-1/4, -y+1/4 '
loop_
_atom_site_label
_atom_site_type_symbol
_atom_site_site_symmetry_multiplicity
_atom_site_fract_x
_atom_site_fract_y
_atom_site_fract_z
_atom_site_occupancy
_atom_site_B_iso_or_equiv
Si1 Si   8 0 0 0 1 0.847123

data_phase_Al2O3_17
_pd_block_id Al2O3_17
_pd_block_diffractogram_id pattern_17

_pd_phase_name Al2O3_17
_cell_length_a 4.770059
_cell_length_b 4.770059
_cell_length_c 13.02522
_cell_angle_alpha 90
_cell_angle_beta 90
_cell_angle_gamma 120
_cell_volume 256.6629
_symmetry_space_group_name_H-M R-3cH
loop_
	_symmetry_equiv_pos_as_xyz
	 'x, y, z '
	 '-x, -y, -z '
	 '-x+y, -x, z '
	 '-x+y, y, z+1/2 '
	 '-y, -x, z+1/2 '
	 '-y, x-y, z '
	 'y, -x+y, -z '
	 'y, x, -z+1/2 '
	 'x-y, -y, -z+1/2 '
	 'x-y, x, -z '
	 '-x, -x+y, -z+1/2 '
	 'x, x-y, z+1/2 '
	 'x-1/3, y+1/3, z+1/3 '
	 '-x-1/3, -y+1/3, -z+1/3 '
	 '-x+y-1/3, -x+1/3, z+1/3 '
	 '-x+y-1/3, y+1/3, z-1/6 '
	 '-y-1/3, -x+1/3, z-1/6 '
	 '-y-1/3, x-y+1/3, z+1/3 '
	 'y-1/3, -x+y+1/3, -z+1/3 '
	 'y-1/3, x+1/3, -z-1/6 '
	 'x-y-1/3, -y+1/3, -z-1/6 '
	 'x-y-1/3, x+1/3, -z+1/3 '
	 '-x-1/3, -x+y+1/3, -z-1/6 '
	 'x-1/3, x-y+1/3, z-1/6 '
	 'x+1/3, y-1/3, z-1/3 '
	 '-x+1/3, -y-1/3, -z-1/3 '
	 '-x+y+1/3, -x-1/3, z-1/3 '
	 '-x+y+1/3, y-1/3, z+1/6 '
	 '-y+1/3, -x-1/3, z+1/6 '
	 '-y+1/3, x-y-1/3, z-1/3 '
	 'y+1/3, -x+y-1/3, -z-1/3 '
	 'y+1/3, x-1/3, -z+1/6 '
	 'x-y+1/3, -y-1/3, -z+1/6 '
	 'x-y+1/3, x-1/3, -z-1/3 '
	 '-x+1/3, -x+y-1/3, -z+1/6 '
	 'x+1/3, x-y-1/3, z+1/6 '
loop_
_atom_site_label
_atom_site_type_symbol
_atom_site_site_symmetry_multiplicity
_atom_site_fract_x
_atom_site_fract_y
_atom_site_fract_z
_atom_site_occupancy
_atom_site_B_iso_or_equiv
Al1 Al+3  12 0 0 0.148 1 0.5303002
O1 O-2  18 0.306 0 0.25 1 0.5303002

data_phase_Si_17
_pd_block_id Si_17
_pd_block_diffractogram_id pattern_17

_pd_phase_name Si_17
_cell_length_a 5.437329
_cell_length_b 5.437329
_cell_length_c 5.437329
_cell_angle_alpha 90
_cell_angle_beta 90
_cell_angle_gamma 90
_cell_volume 160.7521
_symmetry_space_group_name_H-M Fd-3mS
loop_
	_symmetry_equiv_pos_as_xyz
	 'x, y, z '
	 '-x, z+1/2, -y+1/2 '
	 '-x+1/4, -y+1/4, -z+1/4 '
	 '-x+1/4, -z+1/4, -y+1/4 '
	 '-x+1/2, -z, y+1/2 '
	 '-x+1/2, y+1/2, -z '
	 '-x-1/4, z-1/4, y+1/4 '
	 '-x-1/4, y+1/4, z-1/4 '
	 '-y, -z+1/2, x+1/2 '
	 '-y, x+1/2, -z+1/2 '
	 '-y+1/4, -x+1/4, -z+1/4 '
	 '-y+1/4, -z+1/4, -x+1/4 '
	 '-y+1/2, -x, z+1/2 '
	 '-y+1/2, z+1/2, -x '
	 '-y-1/4, z+1/4, x-1/4 '
	 '-y-1/4, x-1/4, z+1/4 '
	 '-z, -x+1/2, y+1/2 '
	 '-z, y+1/2, -x+1/2 '
	 '-z+1/4, -x+1/4, -y+1/4 '
	 '-z+1/4, -y+1/4, -x+1/4 '
	 '-z+1/2, -y, x+1/2 '
	 '-z+1/2, x+1/2, -y '
	 '-z-1/4, y-1/4, x+1/4 '
	 '-z-1/4, x+1/4, y-1/4 '
	 'z, y, x '
	 'z, x, y '
	 'z+1/4, -y-1/4, x-1/4 '
	 'z+1/4, x-1/4, -y-1/4 '
	 'z+1/2, -x, -y+1/2 '
	 'z+1/2, -y+1/2, -x '
	 'z-1/4, -x-1/4, y+1/4 '
	 'z-1/4, y+1/4, -x-1/4 '
	 'y, z, x '
	 'y, x, z '
	 'y+1/4, -x-1/4, z-1/4 '
	 'y+1/4, z-1/4, -x-1/4 '
	 'y+1/2, -x+1/2, -z '
	 'y+1/2, -z, -x+1/2 '
	 'y-1/4, -z-1/4, x+1/4 '
	 'y-1/4, x+1/4, -z-1/4 '
	 'x, z, y '
	 '-x, -y+1/2, z+1/2 '
	 'x+1/4, -z-1/4, y-1/4 '
	 'x+1/4, y-1/4, -z-1/4 '
	 'x+1/2, -y, -z+1/2 '
	 'x+1/2, -z+1/2, -y '
	 'x-1/4, -y-1/4, z+1/4 '
	 'x-1/4, z+1/4, -y-1/4 '
	 'x+1/2, y+1/2, z '
	 '-x+1/2, z, -y+1/2 '
	 '-x-1/4, -y-1/4, -z+1/4 '
	 '-x-1/4, -z-1/4, -y+1/4 '
	 '-x, -z+1/2, y+1/2 '
	 '-x, y, -z '
	 '-x+1/4, z+1/4, y+1/4 '
	 '-x+1/4, y-1/4, z-1/4 '
	 '-y+1/2, -z, x+1/2 '
	 '-y+1/2, x, -z+1/2 '
	 '-y-1/4, -x-1/4, -z+1/4 '
	 '-y-1/4, -z-1/4, -x+1/4 '
	 '-y, -x+1/2, z+1/2 '
	 '-y, z, -x '
	 '-y+1/4, z-1/4, x-1/4 '
	 '-y+1/4, x+1/4, z+1/4 '
	 '-z+1/2, -x, y+1/2 '
	 '-z+1/2, y, -x+1/2 '
	 '-z-1/4, -x-1/4, -y+1/4 '
	 '-z-1/4, -y-1/4, -x+1/4 '
	 '-z, -y+1/2, x+1/2 '
	 '-z, x, -y '
	 '-z+1/4, y+1/4, x+1/4 '
	 '-z+1/4, x-1/4, y-1/4 '
	 'z+1/2, y+1/2, x '
	 'z+1/2, x+1/2, y '
	 'z-1/4, -y+1/4, x-1/4 '
	 'z-1/4, x+1/4, -y-1/4 '
	 'z, -x+1/2, -y+1/2 '
	 'z, -y, -x '
	 'z+1/4, -x+1/4, y+1/4 '
	 'z+1/4, y-1/4, -x-1/4 '
	 'y+1/2, z+1/2, x '
	 'y+1/2, x+1/2, z '
	 'y-1/4, -x+1/4, z-1/4 '
	 'y-1/4, z+1/4, -x-1/4 '
	 'y, -x, -z '
	 'y, -z+1/2, -x+1/2 '
	 'y+1/4, -z+1/4, x+1/4 '
	 'y+1/4, x-1/4, -z-1/4 '
	 'x+1/2, z+1/2, y '
	 '-x+1/2, -y, z+1/2 '
	 'x-1/4, -z+1/4, y-1/4 '
	 'x-1/4, y+1/4, -z-1/4 '
	 'x, -y+1/2, -z+1/2 '
	 'x, -z, -y '
	 'x+1/4, -y+1/4, z+1/4 '
	 'x+1/4, z-1/4, -y-1/4 '
	 'x+1/2, y, z+1/2 '
	 '-x+1/2, z+1/2, -y '
	 '-x-1/4, -y+1/4, -z-1/4 '
	 '-x-1/4, -z+1/4, -y-1/4 '
	 '-x, -z, y '
	 '-x, y+1/2, -z+1/2 '
	 '-x+1/4, z-1/4, y-1/4 '
	 '-x+1/4, y+1/4, z+1/4 '
	 '-y+1/2, -z+1/2, x '
	 '-y+1/2, x+1/2, -z '
	 '-y-1/4, -x+1/4, -z-1/4 '
	 '-y-1/4, -z+1/4, -x-1/4 '
	 '-y, -x, z '
	 '-y, z+1/2, -x+1/2 '
	 '-y+1/4, z+1/4, x+1/4 '
	 '-y+1/4, x-1/4, z-1/4 '
	 '-z+1/2, -x+1/2, y '
	 '-z+1/2, y+1/2, -x '
	 '-z-1/4, -x+1/4, -y-1/4 '
	 '-z-1/4, -y+1/4, -x-1/4 '
	 '-z, -y, x '
	 '-z, x+1/2, -y+1/2 '
	 '-z+1/4, y-1/4, x-1/4 '
	 '-z+1/4, x+1/4, y+1/4 '
	 'z+1/2, y, x+1/2 '
	 'z+1/2, x, y+1/2 '
	 'z-1/4, -y-1/4, x+1/4 '
	 'z-1/4, x-1/4, -y+1/4 '
	 'z, -x, -y '
	 'z, -y+1/2, -x+1/2 '
	 'z+1/4, -x-1/4, y-1/4 '
	 'z+1/4, y+1/4, -x+1/4 '
	 'y+1/2, z, x+1/2 '
	 'y+1/2, x, z+1/2 '
	 'y-1/4, -x-1/4, z+1/4 '
	 'y-1/4, z-1/4, -x+1/4 '
	 'y, -x+1/2, -z+1/2 '
	 'y, -z, -x '
	 'y+1/4, -z-1/4, x-1/4 '
	 'y+1/4, x+1/4, -z+1/4 '
	 'x+1/2, z, y+1/2 '
	 '-x+1/2, -y+1/2, z '
	 'x-1/4, -z-1/4, y+1/4 '
	 'x-1/4, y-1/4, -z+1/4 '
	 'x, -y, -z '
	 'x, -z+1/2, -y+1/2 '
	 'x+1/4, -y-1/4, z-1/4 '
	 'x+1/4, z+1/4, -y+1/4 '
	 'x, y+1/2, z+1/2 '
	 '-x, z, -y '
	 '-x+1/4, -y-1/4, -z-1/4 '
	 '-x+1/4, -z-1/4, -y-1/4 '
	 '-x+1/2, -z+1/2, y '
	 '-x+1/2, y, -z+1/2 '
	 '-x-1/4, z+1/4, y-1/4 '
	 '-x-1/4, y-1/4, z+1/4 '
	 '-y, -z, x '
	 '-y, x, -z '
	 '-y+1/4, -x-1/4, -z-1/4 '
	 '-y+1/4, -z-1/4, -x-1/4 '
	 '-y+1/2, -x+1/2, z '
	 '-y+1/2, z, -x+1/2 '
	 '-y-1/4, z-1/4, x+1/4 '
	 '-y-1/4, x+1/4, z-1/4 '
	 '-z, -x, y '
	 '-z, y, -x '
	 '-z+1/4, -x-1/4, -y-1/4 '
	 '-z+1/4, -y-1/4, -x-1/4 '
	 '-z+1/2, -y+1/2, x '
	 '-z+1/2, x, -y+1/2 '
	 '-z-1/4, y+1/4, x-1/4 '
	 '-z-1/4, x-1/4, y+1/4 '
	 'z, y+1/2, x+1/2 '
	 'z, x+1/2, y+1/2 '
	 'z+1/4, -y+1/4, x+1/4 '
	 'z+1/4, x+1/4, -y+1/4 '
	 'z+1/2, -x+1/2, -y '
	 'z+1/2, -y, -x+1/2 '
	 'z-1/4, -x+1/4, y-1/4 '
	 'z-1/4, y-1/4, -x+1/4 '
	 'y, z+1/2, x+1/2 '
	 'y, x+1/2, z+1/2 '
	 'y+1/4, -x+1/4, z+1/4 '
	 'y+1/4, z+1/4, -x+1/4 '
	 'y+1/2, -x, -z+1/2 '
	 'y+1/2, -z+1/2, -x '
	 'y-1/4, -z+1/4, x-1/4 '
	 'y-1/4, x-1/4, -z+1/4 '
	 'x, z+1/2, y+1/2 '
	 '-x, -y, z '
	 'x+1/4, -z+1/4, y+1/4 '
	 'x+1/4, y+1/4, -z+1/4 '
	 'x+1/2, -y+1/2, -z '
	 'x+1/2, -z, -y+1/2 '
	 'x-1/4, -y+1/4, z-1/4 '
	 'x-1/4, z-1/4, -y+1/4 '
loop_
_atom_site_label
_atom_site_type_symbol
_atom_site_site_symmetry_multiplicity
_atom_site_fract_x
_atom_site_fract_y
_atom_site_fract_z
_atom_site_occupancy
_atom_site_B_iso_or_equiv
Si1 Si   8 0 0 0 1 0.8785535

data_phase_Al2O3_18
_pd_block_id Al2O3_18
_pd_block_diffractogram_id pattern_18

_pd_phase_name Al2O3_18
_cell_length_a 4.771189
_cell_length_b 4.771189
_cell_length_c 13.02847
_cell_angle_alpha 90
_cell_angle_beta 90
_cell_angle_gamma 120
_cell_volume 256.8487
_symmetry_space_group_name_H-M R-3cH
loop_
	_symmetry_equiv_pos_as_xyz
	 'x, y, z '
	 '-x, -y, -z '
	 '-x+y, -x, z '
	 '-x+y, y, z+1/2 '
	 '-y, -x, z+1/2 '
	 '-y, x-y, z '
	 'y, -x+y, -z '
	 'y, x, -z+1/2 '
	 'x-y, -y, -z+1/2 '
	 'x-y, x, -z '
	 '-x, -x+y, -z+1/2 '
	 'x, x-y, z+1/2 '
	 'x-1/3, y+1/3, z+1/3 '
	 '-x-1/3, -y+1/3, -z+1/3 '
	 '-x+y-1/3, -x+1/3, z+1/3 '
	 '-x+y-1/3, y+1/3, z-1/6 '
	 '-y-1/3, -x+1/3, z-1/6 '
	 '-y-1/3, x-y+1/3, z+1/3 '
	 'y-1/3, -x+y+1/3, -z+1/3 '
	 'y-1/3, x+1/3, -z-1/6 '
	 'x-y-1/3, -y+1/3, -z-1/6 '
	 'x-y-1/3, x+1/3, -z+1/3 '
	 '-x-1/3, -x+y+1/3, -z-1/6 '
	 'x-1/3, x-y+1/3, z-1/6 '
	 'x+1/3, y-1/3, z-1/3 '
	 '-x+1/3, -y-1/3, -z-1/3 '
	 '-x+y+1/3, -x-1/3, z-1/3 '
	 '-x+y+1/3, y-1/3, z+1/6 '
	 '-y+1/3, -x-1/3, z+1/6 '
	 '-y+1/3, x-y-1/3, z-1/3 '
	 'y+1/3, -x+y-1/3, -z-1/3 '
	 'y+1/3, x-1/3, -z+1/6 '
	 'x-y+1/3, -y-1/3, -z+1/6 '
	 'x-y+1/3, x-1/3, -z-1/3 '
	 '-x+1/3, -x+y-1/3, -z+1/6 '
	 'x+1/3, x-y-1/3, z+1/6 '
loop_
_atom_site_label
_atom_site_type_symbol
_atom_site_site_symmetry_multiplicity
_atom_site_fract_x
_atom_site_fract_y
_atom_site_fract_z
_atom_site_occupancy
_atom_site_B_iso_or_equiv
Al1 Al+3  12 0 0 0.148 1 0.5078302
O1 O-2  18 0.306 0 0.25 1 0.5078302

data_phase_Si_18
_pd_block_id Si_18
_pd_block_diffractogram_id pattern_18

_pd_phase_name Si_18
_cell_length_a 5.437965
_cell_length_b 5.437965
_cell_length_c 5.437965
_cell_angle_alpha 90
_cell_angle_beta 90
_cell_angle_gamma 90
_cell_volume 160.8085
_symmetry_space_group_name_H-M Fd-3mS
loop_
	_symmetry_equiv_pos_as_xyz
	 'x, y, z '
	 '-x, z+1/2, -y+1/2 '
	 '-x+1/4, -y+1/4, -z+1/4 '
	 '-x+1/4, -z+1/4, -y+1/4 '
	 '-x+1/2, -z, y+1/2 '
	 '-x+1/2, y+1/2, -z '
	 '-x-1/4, z-1/4, y+1/4 '
	 '-x-1/4, y+1/4, z-1/4 '
	 '-y, -z+1/2, x+1/2 '
	 '-y, x+1/2, -z+1/2 '
	 '-y+1/4, -x+1/4, -z+1/4 '
	 '-y+1/4, -z+1/4, -x+1/4 '
	 '-y+1/2, -x, z+1/2 '
	 '-y+1/2, z+1/2, -x '
	 '-y-1/4, z+1/4, x-1/4 '
	 '-y-1/4, x-1/4, z+1/4 '
	 '-z, -x+1/2, y+1/2 '
	 '-z, y+1/2, -x+1/2 '
	 '-z+1/4, -x+1/4, -y+1/4 '
	 '-z+1/4, -y+1/4, -x+1/4 '
	 '-z+1/2, -y, x+1/2 '
	 '-z+1/2, x+1/2, -y '
	 '-z-1/4, y-1/4, x+1/4 '
	 '-z-1/4, x+1/4, y-1/4 '
	 'z, y, x '
	 'z, x, y '
	 'z+1/4, -y-1/4, x-1/4 '
	 'z+1/4, x-1/4, -y-1/4 '
	 'z+1/2, -x, -y+1/2 '
	 'z+1/2, -y+1/2, -x '
	 'z-1/4, -x-1/4, y+1/4 '
	 'z-1/4, y+1/4, -x-1/4 '
	 'y, z, x '
	 'y, x, z '
	 'y+1/4, -x-1/4, z-1/4 '
	 'y+1/4, z-1/4, -x-1/4 '
	 'y+1/2, -x+1/2, -z '
	 'y+1/2, -z, -x+1/2 '
	 'y-1/4, -z-1/4, x+1/4 '
	 'y-1/4, x+1/4, -z-1/4 '
	 'x, z, y '
	 '-x, -y+1/2, z+1/2 '
	 'x+1/4, -z-1/4, y-1/4 '
	 'x+1/4, y-1/4, -z-1/4 '
	 'x+1/2, -y, -z+1/2 '
	 'x+1/2, -z+1/2, -y '
	 'x-1/4, -y-1/4, z+1/4 '
	 'x-1/4, z+1/4, -y-1/4 '
	 'x+1/2, y+1/2, z '
	 '-x+1/2, z, -y+1/2 '
	 '-x-1/4, -y-1/4, -z+1/4 '
	 '-x-1/4, -z-1/4, -y+1/4 '
	 '-x, -z+1/2, y+1/2 '
	 '-x, y, -z '
	 '-x+1/4, z+1/4, y+1/4 '
	 '-x+1/4, y-1/4, z-1/4 '
	 '-y+1/2, -z, x+1/2 '
	 '-y+1/2, x, -z+1/2 '
	 '-y-1/4, -x-1/4, -z+1/4 '
	 '-y-1/4, -z-1/4, -x+1/4 '
	 '-y, -x+1/2, z+1/2 '
	 '-y, z, -x '
	 '-y+1/4, z-1/4, x-1/4 '
	 '-y+1/4, x+1/4, z+1/4 '
	 '-z+1/2, -x, y+1/2 '
	 '-z+1/2, y, -x+1/2 '
	 '-z-1/4, -x-1/4, -y+1/4 '
	 '-z-1/4, -y-1/4, -x+1/4 '
	 '-z, -y+1/2, x+1/2 '
	 '-z, x, -y '
	 '-z+1/4, y+1/4, x+1/4 '
	 '-z+1/4, x-1/4, y-1/4 '
	 'z+1/2, y+1/2, x '
	 'z+1/2, x+1/2, y '
	 'z-1/4, -y+1/4, x-1/4 '
	 'z-1/4, x+1/4, -y-1/4 '
	 'z, -x+1/2, -y+1/2 '
	 'z, -y, -x '
	 'z+1/4, -x+1/4, y+1/4 '
	 'z+1/4, y-1/4, -x-1/4 '
	 'y+1/2, z+1/2, x '
	 'y+1/2, x+1/2, z '
	 'y-1/4, -x+1/4, z-1/4 '
	 'y-1/4, z+1/4, -x-1/4 '
	 'y, -x, -z '
	 'y, -z+1/2, -x+1/2 '
	 'y+1/4, -z+1/4, x+1/4 '
	 'y+1/4, x-1/4, -z-1/4 '
	 'x+1/2, z+1/2, y '
	 '-x+1/2, -y, z+1/2 '
	 'x-1/4, -z+1/4, y-1/4 '
	 'x-1/4, y+1/4, -z-1/4 '
	 'x, -y+1/2, -z+1/2 '
	 'x, -z, -y '
	 'x+1/4, -y+1/4, z+1/4 '
	 'x+1/4, z-1/4, -y-1/4 '
	 'x+1/2, y, z+1/2 '
	 '-x+1/2, z+1/2, -y '
	 '-x-1/4, -y+1/4, -z-1/4 '
	 '-x-1/4, -z+1/4, -y-1/4 '
	 '-x, -z, y '
	 '-x, y+1/2, -z+1/2 '
	 '-x+1/4, z-1/4, y-1/4 '
	 '-x+1/4, y+1/4, z+1/4 '
	 '-y+1/2, -z+1/2, x '
	 '-y+1/2, x+1/2, -z '
	 '-y-1/4, -x+1/4, -z-1/4 '
	 '-y-1/4, -z+1/4, -x-1/4 '
	 '-y, -x, z '
	 '-y, z+1/2, -x+1/2 '
	 '-y+1/4, z+1/4, x+1/4 '
	 '-y+1/4, x-1/4, z-1/4 '
	 '-z+1/2, -x+1/2, y '
	 '-z+1/2, y+1/2, -x '
	 '-z-1/4, -x+1/4, -y-1/4 '
	 '-z-1/4, -y+1/4, -x-1/4 '
	 '-z, -y, x '
	 '-z, x+1/2, -y+1/2 '
	 '-z+1/4, y-1/4, x-1/4 '
	 '-z+1/4, x+1/4, y+1/4 '
	 'z+1/2, y, x+1/2 '
	 'z+1/2, x, y+1/2 '
	 'z-1/4, -y-1/4, x+1/4 '
	 'z-1/4, x-1/4, -y+1/4 '
	 'z, -x, -y '
	 'z, -y+1/2, -x+1/2 '
	 'z+1/4, -x-1/4, y-1/4 '
	 'z+1/4, y+1/4, -x+1/4 '
	 'y+1/2, z, x+1/2 '
	 'y+1/2, x, z+1/2 '
	 'y-1/4, -x-1/4, z+1/4 '
	 'y-1/4, z-1/4, -x+1/4 '
	 'y, -x+1/2, -z+1/2 '
	 'y, -z, -x '
	 'y+1/4, -z-1/4, x-1/4 '
	 'y+1/4, x+1/4, -z+1/4 '
	 'x+1/2, z, y+1/2 '
	 '-x+1/2, -y+1/2, z '
	 'x-1/4, -z-1/4, y+1/4 '
	 'x-1/4, y-1/4, -z+1/4 '
	 'x, -y, -z '
	 'x, -z+1/2, -y+1/2 '
	 'x+1/4, -y-1/4, z-1/4 '
	 'x+1/4, z+1/4, -y+1/4 '
	 'x, y+1/2, z+1/2 '
	 '-x, z, -y '
	 '-x+1/4, -y-1/4, -z-1/4 '
	 '-x+1/4, -z-1/4, -y-1/4 '
	 '-x+1/2, -z+1/2, y '
	 '-x+1/2, y, -z+1/2 '
	 '-x-1/4, z+1/4, y-1/4 '
	 '-x-1/4, y-1/4, z+1/4 '
	 '-y, -z, x '
	 '-y, x, -z '
	 '-y+1/4, -x-1/4, -z-1/4 '
	 '-y+1/4, -z-1/4, -x-1/4 '
	 '-y+1/2, -x+1/2, z '
	 '-y+1/2, z, -x+1/2 '
	 '-y-1/4, z-1/4, x+1/4 '
	 '-y-1/4, x+1/4, z-1/4 '
	 '-z, -x, y '
	 '-z, y, -x '
	 '-z+1/4, -x-1/4, -y-1/4 '
	 '-z+1/4, -y-1/4, -x-1/4 '
	 '-z+1/2, -y+1/2, x '
	 '-z+1/2, x, -y+1/2 '
	 '-z-1/4, y+1/4, x-1/4 '
	 '-z-1/4, x-1/4, y+1/4 '
	 'z, y+1/2, x+1/2 '
	 'z, x+1/2, y+1/2 '
	 'z+1/4, -y+1/4, x+1/4 '
	 'z+1/4, x+1/4, -y+1/4 '
	 'z+1/2, -x+1/2, -y '
	 'z+1/2, -y, -x+1/2 '
	 'z-1/4, -x+1/4, y-1/4 '
	 'z-1/4, y-1/4, -x+1/4 '
	 'y, z+1/2, x+1/2 '
	 'y, x+1/2, z+1/2 '
	 'y+1/4, -x+1/4, z+1/4 '
	 'y+1/4, z+1/4, -x+1/4 '
	 'y+1/2, -x, -z+1/2 '
	 'y+1/2, -z+1/2, -x '
	 'y-1/4, -z+1/4, x-1/4 '
	 'y-1/4, x-1/4, -z+1/4 '
	 'x, z+1/2, y+1/2 '
	 '-x, -y, z '
	 'x+1/4, -z+1/4, y+1/4 '
	 'x+1/4, y+1/4, -z+1/4 '
	 'x+1/2, -y+1/2, -z '
	 'x+1/2, -z, -y+1/2 '
	 'x-1/4, -y+1/4, z-1/4 '
	 'x-1/4, z-1/4, -y+1/4 '
loop_
_atom_site_label
_atom_site_type_symbol
_atom_site_site_symmetry_multiplicity
_atom_site_fract_x
_atom_site_fract_y
_atom_site_fract_z
_atom_site_occupancy
_atom_site_B_iso_or_equiv
Si1 Si   8 0 0 0 1 0.8992042

data_phase_Al2O3_19
_pd_block_id Al2O3_19
_pd_block_diffractogram_id pattern_19

_pd_phase_name Al2O3_19
_cell_length_a 4.773019
_cell_length_b 4.773019
_cell_length_c 13.03411
_cell_angle_alpha 90
_cell_angle_beta 90
_cell_angle_gamma 120
_cell_volume 257.157
_symmetry_space_group_name_H-M R-3cH
loop_
	_symmetry_equiv_pos_as_xyz
	 'x, y, z '
	 '-x, -y, -z '
	 '-x+y, -x, z '
	 '-x+y, y, z+1/2 '
	 '-y, -x, z+1/2 '
	 '-y, x-y, z '
	 'y, -x+y, -z '
	 'y, x, -z+1/2 '
	 'x-y, -y, -z+1/2 '
	 'x-y, x, -z '
	 '-x, -x+y, -z+1/2 '
	 'x, x-y, z+1/2 '
	 'x-1/3, y+1/3, z+1/3 '
	 '-x-1/3, -y+1/3, -z+1/3 '
	 '-x+y-1/3, -x+1/3, z+1/3 '
	 '-x+y-1/3, y+1/3, z-1/6 '
	 '-y-1/3, -x+1/3, z-1/6 '
	 '-y-1/3, x-y+1/3, z+1/3 '
	 'y-1/3, -x+y+1/3, -z+1/3 '
	 'y-1/3, x+1/3, -z-1/6 '
	 'x-y-1/3, -y+1/3, -z-1/6 '
	 'x-y-1/3, x+1/3, -z+1/3 '
	 '-x-1/3, -x+y+1/3, -z-1/6 '
	 'x-1/3, x-y+1/3, z-1/6 '
	 'x+1/3, y-1/3, z-1/3 '
	 '-x+1/3, -y-1/3, -z-1/3 '
	 '-x+y+1/3, -x-1/3, z-1/3 '
	 '-x+y+1/3, y-1/3, z+1/6 '
	 '-y+1/3, -x-1/3, z+1/6 '
	 '-y+1/3, x-y-1/3, z-1/3 '
	 'y+1/3, -x+y-1/3, -z-1/3 '
	 'y+1/3, x-1/3, -z+1/6 '
	 'x-y+1/3, -y-1/3, -z+1/6 '
	 'x-y+1/3, x-1/3, -z-1/3 '
	 '-x+1/3, -x+y-1/3, -z+1/6 '
	 'x+1/3, x-y-1/3, z+1/6 '
loop_
_atom_site_label
_atom_site_type_symbol
_atom_site_site_symmetry_multiplicity
_atom_site_fract_x
_atom_site_fract_y
_atom_site_fract_z
_atom_site_occupancy
_atom_site_B_iso_or_equiv
Al1 Al+3  12 0 0 0.148 1 0.5398017
O1 O-2  18 0.306 0 0.25 1 0.5398017

data_phase_Si_19
_pd_block_id Si_19
_pd_block_diffractogram_id pattern_19

_pd_phase_name Si_19
_cell_length_a 5.439033
_cell_length_b 5.439033
_cell_length_c 5.439033
_cell_angle_alpha 90
_cell_angle_beta 90
_cell_angle_gamma 90
_cell_volume 160.9034
_symmetry_space_group_name_H-M Fd-3mS
loop_
	_symmetry_equiv_pos_as_xyz
	 'x, y, z '
	 '-x, z+1/2, -y+1/2 '
	 '-x+1/4, -y+1/4, -z+1/4 '
	 '-x+1/4, -z+1/4, -y+1/4 '
	 '-x+1/2, -z, y+1/2 '
	 '-x+1/2, y+1/2, -z '
	 '-x-1/4, z-1/4, y+1/4 '
	 '-x-1/4, y+1/4, z-1/4 '
	 '-y, -z+1/2, x+1/2 '
	 '-y, x+1/2, -z+1/2 '
	 '-y+1/4, -x+1/4, -z+1/4 '
	 '-y+1/4, -z+1/4, -x+1/4 '
	 '-y+1/2, -x, z+1/2 '
	 '-y+1/2, z+1/2, -x '
	 '-y-1/4, z+1/4, x-1/4 '
	 '-y-1/4, x-1/4, z+1/4 '
	 '-z, -x+1/2, y+1/2 '
	 '-z, y+1/2, -x+1/2 '
	 '-z+1/4, -x+1/4, -y+1/4 '
	 '-z+1/4, -y+1/4, -x+1/4 '
	 '-z+1/2, -y, x+1/2 '
	 '-z+1/2, x+1/2, -y '
	 '-z-1/4, y-1/4, x+1/4 '
	 '-z-1/4, x+1/4, y-1/4 '
	 'z, y, x '
	 'z, x, y '
	 'z+1/4, -y-1/4, x-1/4 '
	 'z+1/4, x-1/4, -y-1/4 '
	 'z+1/2, -x, -y+1/2 '
	 'z+1/2, -y+1/2, -x '
	 'z-1/4, -x-1/4, y+1/4 '
	 'z-1/4, y+1/4, -x-1/4 '
	 'y, z, x '
	 'y, x, z '
	 'y+1/4, -x-1/4, z-1/4 '
	 'y+1/4, z-1/4, -x-1/4 '
	 'y+1/2, -x+1/2, -z '
	 'y+1/2, -z, -x+1/2 '
	 'y-1/4, -z-1/4, x+1/4 '
	 'y-1/4, x+1/4, -z-1/4 '
	 'x, z, y '
	 '-x, -y+1/2, z+1/2 '
	 'x+1/4, -z-1/4, y-1/4 '
	 'x+1/4, y-1/4, -z-1/4 '
	 'x+1/2, -y, -z+1/2 '
	 'x+1/2, -z+1/2, -y '
	 'x-1/4, -y-1/4, z+1/4 '
	 'x-1/4, z+1/4, -y-1/4 '
	 'x+1/2, y+1/2, z '
	 '-x+1/2, z, -y+1/2 '
	 '-x-1/4, -y-1/4, -z+1/4 '
	 '-x-1/4, -z-1/4, -y+1/4 '
	 '-x, -z+1/2, y+1/2 '
	 '-x, y, -z '
	 '-x+1/4, z+1/4, y+1/4 '
	 '-x+1/4, y-1/4, z-1/4 '
	 '-y+1/2, -z, x+1/2 '
	 '-y+1/2, x, -z+1/2 '
	 '-y-1/4, -x-1/4, -z+1/4 '
	 '-y-1/4, -z-1/4, -x+1/4 '
	 '-y, -x+1/2, z+1/2 '
	 '-y, z, -x '
	 '-y+1/4, z-1/4, x-1/4 '
	 '-y+1/4, x+1/4, z+1/4 '
	 '-z+1/2, -x, y+1/2 '
	 '-z+1/2, y, -x+1/2 '
	 '-z-1/4, -x-1/4, -y+1/4 '
	 '-z-1/4, -y-1/4, -x+1/4 '
	 '-z, -y+1/2, x+1/2 '
	 '-z, x, -y '
	 '-z+1/4, y+1/4, x+1/4 '
	 '-z+1/4, x-1/4, y-1/4 '
	 'z+1/2, y+1/2, x '
	 'z+1/2, x+1/2, y '
	 'z-1/4, -y+1/4, x-1/4 '
	 'z-1/4, x+1/4, -y-1/4 '
	 'z, -x+1/2, -y+1/2 '
	 'z, -y, -x '
	 'z+1/4, -x+1/4, y+1/4 '
	 'z+1/4, y-1/4, -x-1/4 '
	 'y+1/2, z+1/2, x '
	 'y+1/2, x+1/2, z '
	 'y-1/4, -x+1/4, z-1/4 '
	 'y-1/4, z+1/4, -x-1/4 '
	 'y, -x, -z '
	 'y, -z+1/2, -x+1/2 '
	 'y+1/4, -z+1/4, x+1/4 '
	 'y+1/4, x-1/4, -z-1/4 '
	 'x+1/2, z+1/2, y '
	 '-x+1/2, -y, z+1/2 '
	 'x-1/4, -z+1/4, y-1/4 '
	 'x-1/4, y+1/4, -z-1/4 '
	 'x, -y+1/2, -z+1/2 '
	 'x, -z, -y '
	 'x+1/4, -y+1/4, z+1/4 '
	 'x+1/4, z-1/4, -y-1/4 '
	 'x+1/2, y, z+1/2 '
	 '-x+1/2, z+1/2, -y '
	 '-x-1/4, -y+1/4, -z-1/4 '
	 '-x-1/4, -z+1/4, -y-1/4 '
	 '-x, -z, y '
	 '-x, y+1/2, -z+1/2 '
	 '-x+1/4, z-1/4, y-1/4 '
	 '-x+1/4, y+1/4, z+1/4 '
	 '-y+1/2, -z+1/2, x '
	 '-y+1/2, x+1/2, -z '
	 '-y-1/4, -x+1/4, -z-1/4 '
	 '-y-1/4, -z+1/4, -x-1/4 '
	 '-y, -x, z '
	 '-y, z+1/2, -x+1/2 '
	 '-y+1/4, z+1/4, x+1/4 '
	 '-y+1/4, x-1/4, z-1/4 '
	 '-z+1/2, -x+1/2, y '
	 '-z+1/2, y+1/2, -x '
	 '-z-1/4, -x+1/4, -y-1/4 '
	 '-z-1/4, -y+1/4, -x-1/4 '
	 '-z, -y, x '
	 '-z, x+1/2, -y+1/2 '
	 '-z+1/4, y-1/4, x-1/4 '
	 '-z+1/4, x+1/4, y+1/4 '
	 'z+1/2, y, x+1/2 '
	 'z+1/2, x, y+1/2 '
	 'z-1/4, -y-1/4, x+1/4 '
	 'z-1/4, x-1/4, -y+1/4 '
	 'z, -x, -y '
	 'z, -y+1/2, -x+1/2 '
	 'z+1/4, -x-1/4, y-1/4 '
	 'z+1/4, y+1/4, -x+1/4 '
	 'y+1/2, z, x+1/2 '
	 'y+1/2, x, z+1/2 '
	 'y-1/4, -x-1/4, z+1/4 '
	 'y-1/4, z-1/4, -x+1/4 '
	 'y, -x+1/2, -z+1/2 '
	 'y, -z, -x '
	 'y+1/4, -z-1/4, x-1/4 '
	 'y+1/4, x+1/4, -z+1/4 '
	 'x+1/2, z, y+1/2 '
	 '-x+1/2, -y+1/2, z '
	 'x-1/4, -z-1/4, y+1/4 '
	 'x-1/4, y-1/4, -z+1/4 '
	 'x, -y, -z '
	 'x, -z+1/2, -y+1/2 '
	 'x+1/4, -y-1/4, z-1/4 '
	 'x+1/4, z+1/4, -y+1/4 '
	 'x, y+1/2, z+1/2 '
	 '-x, z, -y '
	 '-x+1/4, -y-1/4, -z-1/4 '
	 '-x+1/4, -z-1/4, -y-1/4 '
	 '-x+1/2, -z+1/2, y '
	 '-x+1/2, y, -z+1/2 '
	 '-x-1/4, z+1/4, y-1/4 '
	 '-x-1/4, y-1/4, z+1/4 '
	 '-y, -z, x '
	 '-y, x, -z '
	 '-y+1/4, -x-1/4, -z-1/4 '
	 '-y+1/4, -z-1/4, -x-1/4 '
	 '-y+1/2, -x+1/2, z '
	 '-y+1/2, z, -x+1/2 '
	 '-y-1/4, z-1/4, x+1/4 '
	 '-y-1/4, x+1/4, z-1/4 '
	 '-z, -x, y '
	 '-z, y, -x '
	 '-z+1/4, -x-1/4, -y-1/4 '
	 '-z+1/4, -y-1/4, -x-1/4 '
	 '-z+1/2, -y+1/2, x '
	 '-z+1/2, x, -y+1/2 '
	 '-z-1/4, y+1/4, x-1/4 '
	 '-z-1/4, x-1/4, y+1/4 '
	 'z, y+1/2, x+1/2 '
	 'z, x+1/2, y+1/2 '
	 'z+1/4, -y+1/4, x+1/4 '
	 'z+1/4, x+1/4, -y+1/4 '
	 'z+1/2, -x+1/2, -y '
	 'z+1/2, -y, -x+1/2 '
	 'z-1/4, -x+1/4, y-1/4 '
	 'z-1/4, y-1/4, -x+1/4 '
	 'y, z+1/2, x+1/2 '
	 'y, x+1/2, z+1/2 '
	 'y+1/4, -x+1/4, z+1/4 '
	 'y+1/4, z+1/4, -x+1/4 '
	 'y+1/2, -x, -z+1/2 '
	 'y+1/2, -z+1/2, -x '
	 'y-1/4, -z+1/4, x-1/4 '
	 'y-1/4, x-1/4, -z+1/4 '
	 'x, z+1/2, y+1/2 '
	 '-x, -y, z '
	 'x+1/4, -z+1/4, y+1/4 '
	 'x+1/4, y+1/4, -z+1/4 '
	 'x+1/2, -y+1/2, -z '
	 'x+1/2, -z, -y+1/2 '
	 'x-1/4, -y+1/4, z-1/4 '
	 'x-1/4, z-1/4, -y+1/4 '
loop_
_atom_site_label
_atom_site_type_symbol
_atom_site_site_symmetry_multiplicity
_atom_site_fract_x
_atom_site_fract_y
_atom_site_fract_z
_atom_site_occupancy
_atom_site_B_iso_or_equiv
Si1 Si   8 0 0 0 1 1.040123

data_phase_Al2O3_20
_pd_block_id Al2O3_20
_pd_block_diffractogram_id pattern_20

_pd_phase_name Al2O3_20
_cell_length_a 4.774845
_cell_length_b 4.774845
_cell_length_c 13.0396
_cell_angle_alpha 90
_cell_angle_beta 90
_cell_angle_gamma 120
_cell_volume 257.4623
_symmetry_space_group_name_H-M R-3cH
loop_
	_symmetry_equiv_pos_as_xyz
	 'x, y, z '
	 '-x, -y, -z '
	 '-x+y, -x, z '
	 '-x+y, y, z+1/2 '
	 '-y, -x, z+1/2 '
	 '-y, x-y, z '
	 'y, -x+y, -z '
	 'y, x, -z+1/2 '
	 'x-y, -y, -z+1/2 '
	 'x-y, x, -z '
	 '-x, -x+y, -z+1/2 '
	 'x, x-y, z+1/2 '
	 'x-1/3, y+1/3, z+1/3 '
	 '-x-1/3, -y+1/3, -z+1/3 '
	 '-x+y-1/3, -x+1/3, z+1/3 '
	 '-x+y-1/3, y+1/3, z-1/6 '
	 '-y-1/3, -x+1/3, z-1/6 '
	 '-y-1/3, x-y+1/3, z+1/3 '
	 'y-1/3, -x+y+1/3, -z+1/3 '
	 'y-1/3, x+1/3, -z-1/6 '
	 'x-y-1/3, -y+1/3, -z-1/6 '
	 'x-y-1/3, x+1/3, -z+1/3 '
	 '-x-1/3, -x+y+1/3, -z-1/6 '
	 'x-1/3, x-y+1/3, z-1/6 '
	 'x+1/3, y-1/3, z-1/3 '
	 '-x+1/3, -y-1/3, -z-1/3 '
	 '-x+y+1/3, -x-1/3, z-1/3 '
	 '-x+y+1/3, y-1/3, z+1/6 '
	 '-y+1/3, -x-1/3, z+1/6 '
	 '-y+1/3, x-y-1/3, z-1/3 '
	 'y+1/3, -x+y-1/3, -z-1/3 '
	 'y+1/3, x-1/3, -z+1/6 '
	 'x-y+1/3, -y-1/3, -z+1/6 '
	 'x-y+1/3, x-1/3, -z-1/3 '
	 '-x+1/3, -x+y-1/3, -z+1/6 '
	 'x+1/3, x-y-1/3, z+1/6 '
loop_
_atom_site_label
_atom_site_type_symbol
_atom_site_site_symmetry_multiplicity
_atom_site_fract_x
_atom_site_fract_y
_atom_site_fract_z
_atom_site_occupancy
_atom_site_B_iso_or_equiv
Al1 Al+3  12 0 0 0.148 1 0.535507
O1 O-2  18 0.306 0 0.25 1 0.535507

data_phase_Si_20
_pd_block_id Si_20
_pd_block_diffractogram_id pattern_20

_pd_phase_name Si_20
_cell_length_a 5.440093
_cell_length_b 5.440093
_cell_length_c 5.440093
_cell_angle_alpha 90
_cell_angle_beta 90
_cell_angle_gamma 90
_cell_volume 160.9975
_symmetry_space_group_name_H-M Fd-3mS
loop_
	_symmetry_equiv_pos_as_xyz
	 'x, y, z '
	 '-x, z+1/2, -y+1/2 '
	 '-x+1/4, -y+1/4, -z+1/4 '
	 '-x+1/4, -z+1/4, -y+1/4 '
	 '-x+1/2, -z, y+1/2 '
	 '-x+1/2, y+1/2, -z '
	 '-x-1/4, z-1/4, y+1/4 '
	 '-x-1/4, y+1/4, z-1/4 '
	 '-y, -z+1/2, x+1/2 '
	 '-y, x+1/2, -z+1/2 '
	 '-y+1/4, -x+1/4, -z+1/4 '
	 '-y+1/4, -z+1/4, -x+1/4 '
	 '-y+1/2, -x, z+1/2 '
	 '-y+1/2, z+1/2, -x '
	 '-y-1/4, z+1/4, x-1/4 '
	 '-y-1/4, x-1/4, z+1/4 '
	 '-z, -x+1/2, y+1/2 '
	 '-z, y+1/2, -x+1/2 '
	 '-z+1/4, -x+1/4, -y+1/4 '
	 '-z+1/4, -y+1/4, -x+1/4 '
	 '-z+1/2, -y, x+1/2 '
	 '-z+1/2, x+1/2, -y '
	 '-z-1/4, y-1/4, x+1/4 '
	 '-z-1/4, x+1/4, y-1/4 '
	 'z, y, x '
	 'z, x, y '
	 'z+1/4, -y-1/4, x-1/4 '
	 'z+1/4, x-1/4, -y-1/4 '
	 'z+1/2, -x, -y+1/2 '
	 'z+1/2, -y+1/2, -x '
	 'z-1/4, -x-1/4, y+1/4 '
	 'z-1/4, y+1/4, -x-1/4 '
	 'y, z, x '
	 'y, x, z '
	 'y+1/4, -x-1/4, z-1/4 '
	 'y+1/4, z-1/4, -x-1/4 '
	 'y+1/2, -x+1/2, -z '
	 'y+1/2, -z, -x+1/2 '
	 'y-1/4, -z-1/4, x+1/4 '
	 'y-1/4, x+1/4, -z-1/4 '
	 'x, z, y '
	 '-x, -y+1/2, z+1/2 '
	 'x+1/4, -z-1/4, y-1/4 '
	 'x+1/4, y-1/4, -z-1/4 '
	 'x+1/2, -y, -z+1/2 '
	 'x+1/2, -z+1/2, -y '
	 'x-1/4, -y-1/4, z+1/4 '
	 'x-1/4, z+1/4, -y-1/4 '
	 'x+1/2, y+1/2, z '
	 '-x+1/2, z, -y+1/2 '
	 '-x-1/4, -y-1/4, -z+1/4 '
	 '-x-1/4, -z-1/4, -y+1/4 '
	 '-x, -z+1/2, y+1/2 '
	 '-x, y, -z '
	 '-x+1/4, z+1/4, y+1/4 '
	 '-x+1/4, y-1/4, z-1/4 '
	 '-y+1/2, -z, x+1/2 '
	 '-y+1/2, x, -z+1/2 '
	 '-y-1/4, -x-1/4, -z+1/4 '
	 '-y-1/4, -z-1/4, -x+1/4 '
	 '-y, -x+1/2, z+1/2 '
	 '-y, z, -x '
	 '-y+1/4, z-1/4, x-1/4 '
	 '-y+1/4, x+1/4, z+1/4 '
	 '-z+1/2, -x, y+1/2 '
	 '-z+1/2, y, -x+1/2 '
	 '-z-1/4, -x-1/4, -y+1/4 '
	 '-z-1/4, -y-1/4, -x+1/4 '
	 '-z, -y+1/2, x+1/2 '
	 '-z, x, -y '
	 '-z+1/4, y+1/4, x+1/4 '
	 '-z+1/4, x-1/4, y-1/4 '
	 'z+1/2, y+1/2, x '
	 'z+1/2, x+1/2, y '
	 'z-1/4, -y+1/4, x-1/4 '
	 'z-1/4, x+1/4, -y-1/4 '
	 'z, -x+1/2, -y+1/2 '
	 'z, -y, -x '
	 'z+1/4, -x+1/4, y+1/4 '
	 'z+1/4, y-1/4, -x-1/4 '
	 'y+1/2, z+1/2, x '
	 'y+1/2, x+1/2, z '
	 'y-1/4, -x+1/4, z-1/4 '
	 'y-1/4, z+1/4, -x-1/4 '
	 'y, -x, -z '
	 'y, -z+1/2, -x+1/2 '
	 'y+1/4, -z+1/4, x+1/4 '
	 'y+1/4, x-1/4, -z-1/4 '
	 'x+1/2, z+1/2, y '
	 '-x+1/2, -y, z+1/2 '
	 'x-1/4, -z+1/4, y-1/4 '
	 'x-1/4, y+1/4, -z-1/4 '
	 'x, -y+1/2, -z+1/2 '
	 'x, -z, -y '
	 'x+1/4, -y+1/4, z+1/4 '
	 'x+1/4, z-1/4, -y-1/4 '
	 'x+1/2, y, z+1/2 '
	 '-x+1/2, z+1/2, -y '
	 '-x-1/4, -y+1/4, -z-1/4 '
	 '-x-1/4, -z+1/4, -y-1/4 '
	 '-x, -z, y '
	 '-x, y+1/2, -z+1/2 '
	 '-x+1/4, z-1/4, y-1/4 '
	 '-x+1/4, y+1/4, z+1/4 '
	 '-y+1/2, -z+1/2, x '
	 '-y+1/2, x+1/2, -z '
	 '-y-1/4, -x+1/4, -z-1/4 '
	 '-y-1/4, -z+1/4, -x-1/4 '
	 '-y, -x, z '
	 '-y, z+1/2, -x+1/2 '
	 '-y+1/4, z+1/4, x+1/4 '
	 '-y+1/4, x-1/4, z-1/4 '
	 '-z+1/2, -x+1/2, y '
	 '-z+1/2, y+1/2, -x '
	 '-z-1/4, -x+1/4, -y-1/4 '
	 '-z-1/4, -y+1/4, -x-1/4 '
	 '-z, -y, x '
	 '-z, x+1/2, -y+1/2 '
	 '-z+1/4, y-1/4, x-1/4 '
	 '-z+1/4, x+1/4, y+1/4 '
	 'z+1/2, y, x+1/2 '
	 'z+1/2, x, y+1/2 '
	 'z-1/4, -y-1/4, x+1/4 '
	 'z-1/4, x-1/4, -y+1/4 '
	 'z, -x, -y '
	 'z, -y+1/2, -x+1/2 '
	 'z+1/4, -x-1/4, y-1/4 '
	 'z+1/4, y+1/4, -x+1/4 '
	 'y+1/2, z, x+1/2 '
	 'y+1/2, x, z+1/2 '
	 'y-1/4, -x-1/4, z+1/4 '
	 'y-1/4, z-1/4, -x+1/4 '
	 'y, -x+1/2, -z+1/2 '
	 'y, -z, -x '
	 'y+1/4, -z-1/4, x-1/4 '
	 'y+1/4, x+1/4, -z+1/4 '
	 'x+1/2, z, y+1/2 '
	 '-x+1/2, -y+1/2, z '
	 'x-1/4, -z-1/4, y+1/4 '
	 'x-1/4, y-1/4, -z+1/4 '
	 'x, -y, -z '
	 'x, -z+1/2, -y+1/2 '
	 'x+1/4, -y-1/4, z-1/4 '
	 'x+1/4, z+1/4, -y+1/4 '
	 'x, y+1/2, z+1/2 '
	 '-x, z, -y '
	 '-x+1/4, -y-1/4, -z-1/4 '
	 '-x+1/4, -z-1/4, -y-1/4 '
	 '-x+1/2, -z+1/2, y '
	 '-x+1/2, y, -z+1/2 '
	 '-x-1/4, z+1/4, y-1/4 '
	 '-x-1/4, y-1/4, z+1/4 '
	 '-y, -z, x '
	 '-y, x, -z '
	 '-y+1/4, -x-1/4, -z-1/4 '
	 '-y+1/4, -z-1/4, -x-1/4 '
	 '-y+1/2, -x+1/2, z '
	 '-y+1/2, z, -x+1/2 '
	 '-y-1/4, z-1/4, x+1/4 '
	 '-y-1/4, x+1/4, z-1/4 '
	 '-z, -x, y '
	 '-z, y, -x '
	 '-z+1/4, -x-1/4, -y-1/4 '
	 '-z+1/4, -y-1/4, -x-1/4 '
	 '-z+1/2, -y+1/2, x '
	 '-z+1/2, x, -y+1/2 '
	 '-z-1/4, y+1/4, x-1/4 '
	 '-z-1/4, x-1/4, y+1/4 '
	 'z, y+1/2, x+1/2 '
	 'z, x+1/2, y+1/2 '
	 'z+1/4, -y+1/4, x+1/4 '
	 'z+1/4, x+1/4, -y+1/4 '
	 'z+1/2, -x+1/2, -y '
	 'z+1/2, -y, -x+1/2 '
	 'z-1/4, -x+1/4, y-1/4 '
	 'z-1/4, y-1/4, -x+1/4 '
	 'y, z+1/2, x+1/2 '
	 'y, x+1/2, z+1/2 '
	 'y+1/4, -x+1/4, z+1/4 '
	 'y+1/4, z+1/4, -x+1/4 '
	 'y+1/2, -x, -z+1/2 '
	 'y+1/2, -z+1/2, -x '
	 'y-1/4, -z+1/4, x-1/4 '
	 'y-1/4, x-1/4, -z+1/4 '
	 'x, z+1/2, y+1/2 '
	 '-x, -y, z '
	 'x+1/4, -z+1/4, y+1/4 '
	 'x+1/4, y+1/4, -z+1/4 '
	 'x+1/2, -y+1/2, -z '
	 'x+1/2, -z, -y+1/2 '
	 'x-1/4, -y+1/4, z-1/4 '
	 'x-1/4, z-1/4, -y+1/4 '
loop_
_atom_site_label
_atom_site_type_symbol
_atom_site_site_symmetry_multiplicity
_atom_site_fract_x
_atom_site_fract_y
_atom_site_fract_z
_atom_site_occupancy
_atom_site_B_iso_or_equiv
Si1 Si   8 0 0 0 1 1.106814

data_phase_Al2O3_21
_pd_block_id Al2O3_21
_pd_block_diffractogram_id pattern_21

_pd_phase_name Al2O3_21
_cell_length_a 4.776701
_cell_length_b 4.776701
_cell_length_c 13.04528
_cell_angle_alpha 90
_cell_angle_beta 90
_cell_angle_gamma 120
_cell_volume 257.7747
_symmetry_space_group_name_H-M R-3cH
loop_
	_symmetry_equiv_pos_as_xyz
	 'x, y, z '
	 '-x, -y, -z '
	 '-x+y, -x, z '
	 '-x+y, y, z+1/2 '
	 '-y, -x, z+1/2 '
	 '-y, x-y, z '
	 'y, -x+y, -z '
	 'y, x, -z+1/2 '
	 'x-y, -y, -z+1/2 '
	 'x-y, x, -z '
	 '-x, -x+y, -z+1/2 '
	 'x, x-y, z+1/2 '
	 'x-1/3, y+1/3, z+1/3 '
	 '-x-1/3, -y+1/3, -z+1/3 '
	 '-x+y-1/3, -x+1/3, z+1/3 '
	 '-x+y-1/3, y+1/3, z-1/6 '
	 '-y-1/3, -x+1/3, z-1/6 '
	 '-y-1/3, x-y+1/3, z+1/3 '
	 'y-1/3, -x+y+1/3, -z+1/3 '
	 'y-1/3, x+1/3, -z-1/6 '
	 'x-y-1/3, -y+1/3, -z-1/6 '
	 'x-y-1/3, x+1/3, -z+1/3 '
	 '-x-1/3, -x+y+1/3, -z-1/6 '
	 'x-1/3, x-y+1/3, z-1/6 '
	 'x+1/3, y-1/3, z-1/3 '
	 '-x+1/3, -y-1/3, -z-1/3 '
	 '-x+y+1/3, -x-1/3, z-1/3 '
	 '-x+y+1/3, y-1/3, z+1/6 '
	 '-y+1/3, -x-1/3, z+1/6 '
	 '-y+1/3, x-y-1/3, z-1/3 '
	 'y+1/3, -x+y-1/3, -z-1/3 '
	 'y+1/3, x-1/3, -z+1/6 '
	 'x-y+1/3, -y-1/3, -z+1/6 '
	 'x-y+1/3, x-1/3, -z-1/3 '
	 '-x+1/3, -x+y-1/3, -z+1/6 '
	 'x+1/3, x-y-1/3, z+1/6 '
loop_
_atom_site_label
_atom_site_type_symbol
_atom_site_site_symmetry_multiplicity
_atom_site_fract_x
_atom_site_fract_y
_atom_site_fract_z
_atom_site_occupancy
_atom_site_B_iso_or_equiv
Al1 Al+3  12 0 0 0.148 1 0.5906373
O1 O-2  18 0.306 0 0.25 1 0.5906373

data_phase_Si_21
_pd_block_id Si_21
_pd_block_diffractogram_id pattern_21

_pd_phase_name Si_21
_cell_length_a 5.441155
_cell_length_b 5.441155
_cell_length_c 5.441155
_cell_angle_alpha 90
_cell_angle_beta 90
_cell_angle_gamma 90
_cell_volume 161.0917
_symmetry_space_group_name_H-M Fd-3mS
loop_
	_symmetry_equiv_pos_as_xyz
	 'x, y, z '
	 '-x, z+1/2, -y+1/2 '
	 '-x+1/4, -y+1/4, -z+1/4 '
	 '-x+1/4, -z+1/4, -y+1/4 '
	 '-x+1/2, -z, y+1/2 '
	 '-x+1/2, y+1/2, -z '
	 '-x-1/4, z-1/4, y+1/4 '
	 '-x-1/4, y+1/4, z-1/4 '
	 '-y, -z+1/2, x+1/2 '
	 '-y, x+1/2, -z+1/2 '
	 '-y+1/4, -x+1/4, -z+1/4 '
	 '-y+1/4, -z+1/4, -x+1/4 '
	 '-y+1/2, -x, z+1/2 '
	 '-y+1/2, z+1/2, -x '
	 '-y-1/4, z+1/4, x-1/4 '
	 '-y-1/4, x-1/4, z+1/4 '
	 '-z, -x+1/2, y+1/2 '
	 '-z, y+1/2, -x+1/2 '
	 '-z+1/4, -x+1/4, -y+1/4 '
	 '-z+1/4, -y+1/4, -x+1/4 '
	 '-z+1/2, -y, x+1/2 '
	 '-z+1/2, x+1/2, -y '
	 '-z-1/4, y-1/4, x+1/4 '
	 '-z-1/4, x+1/4, y-1/4 '
	 'z, y, x '
	 'z, x, y '
	 'z+1/4, -y-1/4, x-1/4 '
	 'z+1/4, x-1/4, -y-1/4 '
	 'z+1/2, -x, -y+1/2 '
	 'z+1/2, -y+1/2, -x '
	 'z-1/4, -x-1/4, y+1/4 '
	 'z-1/4, y+1/4, -x-1/4 '
	 'y, z, x '
	 'y, x, z '
	 'y+1/4, -x-1/4, z-1/4 '
	 'y+1/4, z-1/4, -x-1/4 '
	 'y+1/2, -x+1/2, -z '
	 'y+1/2, -z, -x+1/2 '
	 'y-1/4, -z-1/4, x+1/4 '
	 'y-1/4, x+1/4, -z-1/4 '
	 'x, z, y '
	 '-x, -y+1/2, z+1/2 '
	 'x+1/4, -z-1/4, y-1/4 '
	 'x+1/4, y-1/4, -z-1/4 '
	 'x+1/2, -y, -z+1/2 '
	 'x+1/2, -z+1/2, -y '
	 'x-1/4, -y-1/4, z+1/4 '
	 'x-1/4, z+1/4, -y-1/4 '
	 'x+1/2, y+1/2, z '
	 '-x+1/2, z, -y+1/2 '
	 '-x-1/4, -y-1/4, -z+1/4 '
	 '-x-1/4, -z-1/4, -y+1/4 '
	 '-x, -z+1/2, y+1/2 '
	 '-x, y, -z '
	 '-x+1/4, z+1/4, y+1/4 '
	 '-x+1/4, y-1/4, z-1/4 '
	 '-y+1/2, -z, x+1/2 '
	 '-y+1/2, x, -z+1/2 '
	 '-y-1/4, -x-1/4, -z+1/4 '
	 '-y-1/4, -z-1/4, -x+1/4 '
	 '-y, -x+1/2, z+1/2 '
	 '-y, z, -x '
	 '-y+1/4, z-1/4, x-1/4 '
	 '-y+1/4, x+1/4, z+1/4 '
	 '-z+1/2, -x, y+1/2 '
	 '-z+1/2, y, -x+1/2 '
	 '-z-1/4, -x-1/4, -y+1/4 '
	 '-z-1/4, -y-1/4, -x+1/4 '
	 '-z, -y+1/2, x+1/2 '
	 '-z, x, -y '
	 '-z+1/4, y+1/4, x+1/4 '
	 '-z+1/4, x-1/4, y-1/4 '
	 'z+1/2, y+1/2, x '
	 'z+1/2, x+1/2, y '
	 'z-1/4, -y+1/4, x-1/4 '
	 'z-1/4, x+1/4, -y-1/4 '
	 'z, -x+1/2, -y+1/2 '
	 'z, -y, -x '
	 'z+1/4, -x+1/4, y+1/4 '
	 'z+1/4, y-1/4, -x-1/4 '
	 'y+1/2, z+1/2, x '
	 'y+1/2, x+1/2, z '
	 'y-1/4, -x+1/4, z-1/4 '
	 'y-1/4, z+1/4, -x-1/4 '
	 'y, -x, -z '
	 'y, -z+1/2, -x+1/2 '
	 'y+1/4, -z+1/4, x+1/4 '
	 'y+1/4, x-1/4, -z-1/4 '
	 'x+1/2, z+1/2, y '
	 '-x+1/2, -y, z+1/2 '
	 'x-1/4, -z+1/4, y-1/4 '
	 'x-1/4, y+1/4, -z-1/4 '
	 'x, -y+1/2, -z+1/2 '
	 'x, -z, -y '
	 'x+1/4, -y+1/4, z+1/4 '
	 'x+1/4, z-1/4, -y-1/4 '
	 'x+1/2, y, z+1/2 '
	 '-x+1/2, z+1/2, -y '
	 '-x-1/4, -y+1/4, -z-1/4 '
	 '-x-1/4, -z+1/4, -y-1/4 '
	 '-x, -z, y '
	 '-x, y+1/2, -z+1/2 '
	 '-x+1/4, z-1/4, y-1/4 '
	 '-x+1/4, y+1/4, z+1/4 '
	 '-y+1/2, -z+1/2, x '
	 '-y+1/2, x+1/2, -z '
	 '-y-1/4, -x+1/4, -z-1/4 '
	 '-y-1/4, -z+1/4, -x-1/4 '
	 '-y, -x, z '
	 '-y, z+1/2, -x+1/2 '
	 '-y+1/4, z+1/4, x+1/4 '
	 '-y+1/4, x-1/4, z-1/4 '
	 '-z+1/2, -x+1/2, y '
	 '-z+1/2, y+1/2, -x '
	 '-z-1/4, -x+1/4, -y-1/4 '
	 '-z-1/4, -y+1/4, -x-1/4 '
	 '-z, -y, x '
	 '-z, x+1/2, -y+1/2 '
	 '-z+1/4, y-1/4, x-1/4 '
	 '-z+1/4, x+1/4, y+1/4 '
	 'z+1/2, y, x+1/2 '
	 'z+1/2, x, y+1/2 '
	 'z-1/4, -y-1/4, x+1/4 '
	 'z-1/4, x-1/4, -y+1/4 '
	 'z, -x, -y '
	 'z, -y+1/2, -x+1/2 '
	 'z+1/4, -x-1/4, y-1/4 '
	 'z+1/4, y+1/4, -x+1/4 '
	 'y+1/2, z, x+1/2 '
	 'y+1/2, x, z+1/2 '
	 'y-1/4, -x-1/4, z+1/4 '
	 'y-1/4, z-1/4, -x+1/4 '
	 'y, -x+1/2, -z+1/2 '
	 'y, -z, -x '
	 'y+1/4, -z-1/4, x-1/4 '
	 'y+1/4, x+1/4, -z+1/4 '
	 'x+1/2, z, y+1/2 '
	 '-x+1/2, -y+1/2, z '
	 'x-1/4, -z-1/4, y+1/4 '
	 'x-1/4, y-1/4, -z+1/4 '
	 'x, -y, -z '
	 'x, -z+1/2, -y+1/2 '
	 'x+1/4, -y-1/4, z-1/4 '
	 'x+1/4, z+1/4, -y+1/4 '
	 'x, y+1/2, z+1/2 '
	 '-x, z, -y '
	 '-x+1/4, -y-1/4, -z-1/4 '
	 '-x+1/4, -z-1/4, -y-1/4 '
	 '-x+1/2, -z+1/2, y '
	 '-x+1/2, y, -z+1/2 '
	 '-x-1/4, z+1/4, y-1/4 '
	 '-x-1/4, y-1/4, z+1/4 '
	 '-y, -z, x '
	 '-y, x, -z '
	 '-y+1/4, -x-1/4, -z-1/4 '
	 '-y+1/4, -z-1/4, -x-1/4 '
	 '-y+1/2, -x+1/2, z '
	 '-y+1/2, z, -x+1/2 '
	 '-y-1/4, z-1/4, x+1/4 '
	 '-y-1/4, x+1/4, z-1/4 '
	 '-z, -x, y '
	 '-z, y, -x '
	 '-z+1/4, -x-1/4, -y-1/4 '
	 '-z+1/4, -y-1/4, -x-1/4 '
	 '-z+1/2, -y+1/2, x '
	 '-z+1/2, x, -y+1/2 '
	 '-z-1/4, y+1/4, x-1/4 '
	 '-z-1/4, x-1/4, y+1/4 '
	 'z, y+1/2, x+1/2 '
	 'z, x+1/2, y+1/2 '
	 'z+1/4, -y+1/4, x+1/4 '
	 'z+1/4, x+1/4, -y+1/4 '
	 'z+1/2, -x+1/2, -y '
	 'z+1/2, -y, -x+1/2 '
	 'z-1/4, -x+1/4, y-1/4 '
	 'z-1/4, y-1/4, -x+1/4 '
	 'y, z+1/2, x+1/2 '
	 'y, x+1/2, z+1/2 '
	 'y+1/4, -x+1/4, z+1/4 '
	 'y+1/4, z+1/4, -x+1/4 '
	 'y+1/2, -x, -z+1/2 '
	 'y+1/2, -z+1/2, -x '
	 'y-1/4, -z+1/4, x-1/4 '
	 'y-1/4, x-1/4, -z+1/4 '
	 'x, z+1/2, y+1/2 '
	 '-x, -y, z '
	 'x+1/4, -z+1/4, y+1/4 '
	 'x+1/4, y+1/4, -z+1/4 '
	 'x+1/2, -y+1/2, -z '
	 'x+1/2, -z, -y+1/2 '
	 'x-1/4, -y+1/4, z-1/4 '
	 'x-1/4, z-1/4, -y+1/4 '
loop_
_atom_site_label
_atom_site_type_symbol
_atom_site_site_symmetry_multiplicity
_atom_site_fract_x
_atom_site_fract_y
_atom_site_fract_z
_atom_site_occupancy
_atom_site_B_iso_or_equiv
Si1 Si   8 0 0 0 1 1.205265

data_phase_Al2O3_22
_pd_block_id Al2O3_22
_pd_block_diffractogram_id pattern_22

_pd_phase_name Al2O3_22
_cell_length_a 4.778534
_cell_length_b 4.778534
_cell_length_c 13.05099
_cell_angle_alpha 90
_cell_angle_beta 90
_cell_angle_gamma 120
_cell_volume 258.0855
_symmetry_space_group_name_H-M R-3cH
loop_
	_symmetry_equiv_pos_as_xyz
	 'x, y, z '
	 '-x, -y, -z '
	 '-x+y, -x, z '
	 '-x+y, y, z+1/2 '
	 '-y, -x, z+1/2 '
	 '-y, x-y, z '
	 'y, -x+y, -z '
	 'y, x, -z+1/2 '
	 'x-y, -y, -z+1/2 '
	 'x-y, x, -z '
	 '-x, -x+y, -z+1/2 '
	 'x, x-y, z+1/2 '
	 'x-1/3, y+1/3, z+1/3 '
	 '-x-1/3, -y+1/3, -z+1/3 '
	 '-x+y-1/3, -x+1/3, z+1/3 '
	 '-x+y-1/3, y+1/3, z-1/6 '
	 '-y-1/3, -x+1/3, z-1/6 '
	 '-y-1/3, x-y+1/3, z+1/3 '
	 'y-1/3, -x+y+1/3, -z+1/3 '
	 'y-1/3, x+1/3, -z-1/6 '
	 'x-y-1/3, -y+1/3, -z-1/6 '
	 'x-y-1/3, x+1/3, -z+1/3 '
	 '-x-1/3, -x+y+1/3, -z-1/6 '
	 'x-1/3, x-y+1/3, z-1/6 '
	 'x+1/3, y-1/3, z-1/3 '
	 '-x+1/3, -y-1/3, -z-1/3 '
	 '-x+y+1/3, -x-1/3, z-1/3 '
	 '-x+y+1/3, y-1/3, z+1/6 '
	 '-y+1/3, -x-1/3, z+1/6 '
	 '-y+1/3, x-y-1/3, z-1/3 '
	 'y+1/3, -x+y-1/3, -z-1/3 '
	 'y+1/3, x-1/3, -z+1/6 '
	 'x-y+1/3, -y-1/3, -z+1/6 '
	 'x-y+1/3, x-1/3, -z-1/3 '
	 '-x+1/3, -x+y-1/3, -z+1/6 '
	 'x+1/3, x-y-1/3, z+1/6 '
loop_
_atom_site_label
_atom_site_type_symbol
_atom_site_site_symmetry_multiplicity
_atom_site_fract_x
_atom_site_fract_y
_atom_site_fract_z
_atom_site_occupancy
_atom_site_B_iso_or_equiv
Al1 Al+3  12 0 0 0.148 1 0.6236171
O1 O-2  18 0.306 0 0.25 1 0.6236171

data_phase_Si_22
_pd_block_id Si_22
_pd_block_diffractogram_id pattern_22

_pd_phase_name Si_22
_cell_length_a 5.442226
_cell_length_b 5.442226
_cell_length_c 5.442226
_cell_angle_alpha 90
_cell_angle_beta 90
_cell_angle_gamma 90
_cell_volume 161.1869
_symmetry_space_group_name_H-M Fd-3mS
loop_
	_symmetry_equiv_pos_as_xyz
	 'x, y, z '
	 '-x, z+1/2, -y+1/2 '
	 '-x+1/4, -y+1/4, -z+1/4 '
	 '-x+1/4, -z+1/4, -y+1/4 '
	 '-x+1/2, -z, y+1/2 '
	 '-x+1/2, y+1/2, -z '
	 '-x-1/4, z-1/4, y+1/4 '
	 '-x-1/4, y+1/4, z-1/4 '
	 '-y, -z+1/2, x+1/2 '
	 '-y, x+1/2, -z+1/2 '
	 '-y+1/4, -x+1/4, -z+1/4 '
	 '-y+1/4, -z+1/4, -x+1/4 '
	 '-y+1/2, -x, z+1/2 '
	 '-y+1/2, z+1/2, -x '
	 '-y-1/4, z+1/4, x-1/4 '
	 '-y-1/4, x-1/4, z+1/4 '
	 '-z, -x+1/2, y+1/2 '
	 '-z, y+1/2, -x+1/2 '
	 '-z+1/4, -x+1/4, -y+1/4 '
	 '-z+1/4, -y+1/4, -x+1/4 '
	 '-z+1/2, -y, x+1/2 '
	 '-z+1/2, x+1/2, -y '
	 '-z-1/4, y-1/4, x+1/4 '
	 '-z-1/4, x+1/4, y-1/4 '
	 'z, y, x '
	 'z, x, y '
	 'z+1/4, -y-1/4, x-1/4 '
	 'z+1/4, x-1/4, -y-1/4 '
	 'z+1/2, -x, -y+1/2 '
	 'z+1/2, -y+1/2, -x '
	 'z-1/4, -x-1/4, y+1/4 '
	 'z-1/4, y+1/4, -x-1/4 '
	 'y, z, x '
	 'y, x, z '
	 'y+1/4, -x-1/4, z-1/4 '
	 'y+1/4, z-1/4, -x-1/4 '
	 'y+1/2, -x+1/2, -z '
	 'y+1/2, -z, -x+1/2 '
	 'y-1/4, -z-1/4, x+1/4 '
	 'y-1/4, x+1/4, -z-1/4 '
	 'x, z, y '
	 '-x, -y+1/2, z+1/2 '
	 'x+1/4, -z-1/4, y-1/4 '
	 'x+1/4, y-1/4, -z-1/4 '
	 'x+1/2, -y, -z+1/2 '
	 'x+1/2, -z+1/2, -y '
	 'x-1/4, -y-1/4, z+1/4 '
	 'x-1/4, z+1/4, -y-1/4 '
	 'x+1/2, y+1/2, z '
	 '-x+1/2, z, -y+1/2 '
	 '-x-1/4, -y-1/4, -z+1/4 '
	 '-x-1/4, -z-1/4, -y+1/4 '
	 '-x, -z+1/2, y+1/2 '
	 '-x, y, -z '
	 '-x+1/4, z+1/4, y+1/4 '
	 '-x+1/4, y-1/4, z-1/4 '
	 '-y+1/2, -z, x+1/2 '
	 '-y+1/2, x, -z+1/2 '
	 '-y-1/4, -x-1/4, -z+1/4 '
	 '-y-1/4, -z-1/4, -x+1/4 '
	 '-y, -x+1/2, z+1/2 '
	 '-y, z, -x '
	 '-y+1/4, z-1/4, x-1/4 '
	 '-y+1/4, x+1/4, z+1/4 '
	 '-z+1/2, -x, y+1/2 '
	 '-z+1/2, y, -x+1/2 '
	 '-z-1/4, -x-1/4, -y+1/4 '
	 '-z-1/4, -y-1/4, -x+1/4 '
	 '-z, -y+1/2, x+1/2 '
	 '-z, x, -y '
	 '-z+1/4, y+1/4, x+1/4 '
	 '-z+1/4, x-1/4, y-1/4 '
	 'z+1/2, y+1/2, x '
	 'z+1/2, x+1/2, y '
	 'z-1/4, -y+1/4, x-1/4 '
	 'z-1/4, x+1/4, -y-1/4 '
	 'z, -x+1/2, -y+1/2 '
	 'z, -y, -x '
	 'z+1/4, -x+1/4, y+1/4 '
	 'z+1/4, y-1/4, -x-1/4 '
	 'y+1/2, z+1/2, x '
	 'y+1/2, x+1/2, z '
	 'y-1/4, -x+1/4, z-1/4 '
	 'y-1/4, z+1/4, -x-1/4 '
	 'y, -x, -z '
	 'y, -z+1/2, -x+1/2 '
	 'y+1/4, -z+1/4, x+1/4 '
	 'y+1/4, x-1/4, -z-1/4 '
	 'x+1/2, z+1/2, y '
	 '-x+1/2, -y, z+1/2 '
	 'x-1/4, -z+1/4, y-1/4 '
	 'x-1/4, y+1/4, -z-1/4 '
	 'x, -y+1/2, -z+1/2 '
	 'x, -z, -y '
	 'x+1/4, -y+1/4, z+1/4 '
	 'x+1/4, z-1/4, -y-1/4 '
	 'x+1/2, y, z+1/2 '
	 '-x+1/2, z+1/2, -y '
	 '-x-1/4, -y+1/4, -z-1/4 '
	 '-x-1/4, -z+1/4, -y-1/4 '
	 '-x, -z, y '
	 '-x, y+1/2, -z+1/2 '
	 '-x+1/4, z-1/4, y-1/4 '
	 '-x+1/4, y+1/4, z+1/4 '
	 '-y+1/2, -z+1/2, x '
	 '-y+1/2, x+1/2, -z '
	 '-y-1/4, -x+1/4, -z-1/4 '
	 '-y-1/4, -z+1/4, -x-1/4 '
	 '-y, -x, z '
	 '-y, z+1/2, -x+1/2 '
	 '-y+1/4, z+1/4, x+1/4 '
	 '-y+1/4, x-1/4, z-1/4 '
	 '-z+1/2, -x+1/2, y '
	 '-z+1/2, y+1/2, -x '
	 '-z-1/4, -x+1/4, -y-1/4 '
	 '-z-1/4, -y+1/4, -x-1/4 '
	 '-z, -y, x '
	 '-z, x+1/2, -y+1/2 '
	 '-z+1/4, y-1/4, x-1/4 '
	 '-z+1/4, x+1/4, y+1/4 '
	 'z+1/2, y, x+1/2 '
	 'z+1/2, x, y+1/2 '
	 'z-1/4, -y-1/4, x+1/4 '
	 'z-1/4, x-1/4, -y+1/4 '
	 'z, -x, -y '
	 'z, -y+1/2, -x+1/2 '
	 'z+1/4, -x-1/4, y-1/4 '
	 'z+1/4, y+1/4, -x+1/4 '
	 'y+1/2, z, x+1/2 '
	 'y+1/2, x, z+1/2 '
	 'y-1/4, -x-1/4, z+1/4 '
	 'y-1/4, z-1/4, -x+1/4 '
	 'y, -x+1/2, -z+1/2 '
	 'y, -z, -x '
	 'y+1/4, -z-1/4, x-1/4 '
	 'y+1/4, x+1/4, -z+1/4 '
	 'x+1/2, z, y+1/2 '
	 '-x+1/2, -y+1/2, z '
	 'x-1/4, -z-1/4, y+1/4 '
	 'x-1/4, y-1/4, -z+1/4 '
	 'x, -y, -z '
	 'x, -z+1/2, -y+1/2 '
	 'x+1/4, -y-1/4, z-1/4 '
	 'x+1/4, z+1/4, -y+1/4 '
	 'x, y+1/2, z+1/2 '
	 '-x, z, -y '
	 '-x+1/4, -y-1/4, -z-1/4 '
	 '-x+1/4, -z-1/4, -y-1/4 '
	 '-x+1/2, -z+1/2, y '
	 '-x+1/2, y, -z+1/2 '
	 '-x-1/4, z+1/4, y-1/4 '
	 '-x-1/4, y-1/4, z+1/4 '
	 '-y, -z, x '
	 '-y, x, -z '
	 '-y+1/4, -x-1/4, -z-1/4 '
	 '-y+1/4, -z-1/4, -x-1/4 '
	 '-y+1/2, -x+1/2, z '
	 '-y+1/2, z, -x+1/2 '
	 '-y-1/4, z-1/4, x+1/4 '
	 '-y-1/4, x+1/4, z-1/4 '
	 '-z, -x, y '
	 '-z, y, -x '
	 '-z+1/4, -x-1/4, -y-1/4 '
	 '-z+1/4, -y-1/4, -x-1/4 '
	 '-z+1/2, -y+1/2, x '
	 '-z+1/2, x, -y+1/2 '
	 '-z-1/4, y+1/4, x-1/4 '
	 '-z-1/4, x-1/4, y+1/4 '
	 'z, y+1/2, x+1/2 '
	 'z, x+1/2, y+1/2 '
	 'z+1/4, -y+1/4, x+1/4 '
	 'z+1/4, x+1/4, -y+1/4 '
	 'z+1/2, -x+1/2, -y '
	 'z+1/2, -y, -x+1/2 '
	 'z-1/4, -x+1/4, y-1/4 '
	 'z-1/4, y-1/4, -x+1/4 '
	 'y, z+1/2, x+1/2 '
	 'y, x+1/2, z+1/2 '
	 'y+1/4, -x+1/4, z+1/4 '
	 'y+1/4, z+1/4, -x+1/4 '
	 'y+1/2, -x, -z+1/2 '
	 'y+1/2, -z+1/2, -x '
	 'y-1/4, -z+1/4, x-1/4 '
	 'y-1/4, x-1/4, -z+1/4 '
	 'x, z+1/2, y+1/2 '
	 '-x, -y, z '
	 'x+1/4, -z+1/4, y+1/4 '
	 'x+1/4, y+1/4, -z+1/4 '
	 'x+1/2, -y+1/2, -z '
	 'x+1/2, -z, -y+1/2 '
	 'x-1/4, -y+1/4, z-1/4 '
	 'x-1/4, z-1/4, -y+1/4 '
loop_
_atom_site_label
_atom_site_type_symbol
_atom_site_site_symmetry_multiplicity
_atom_site_fract_x
_atom_site_fract_y
_atom_site_fract_z
_atom_site_occupancy
_atom_site_B_iso_or_equiv
Si1 Si   8 0 0 0 1 1.316297

data_phase_Al2O3_23
_pd_block_id Al2O3_23
_pd_block_diffractogram_id pattern_23

_pd_phase_name Al2O3_23
_cell_length_a 4.780356
_cell_length_b 4.780356
_cell_length_c 13.05657
_cell_angle_alpha 90
_cell_angle_beta 90
_cell_angle_gamma 120
_cell_volume 258.3927
_symmetry_space_group_name_H-M R-3cH
loop_
	_symmetry_equiv_pos_as_xyz
	 'x, y, z '
	 '-x, -y, -z '
	 '-x+y, -x, z '
	 '-x+y, y, z+1/2 '
	 '-y, -x, z+1/2 '
	 '-y, x-y, z '
	 'y, -x+y, -z '
	 'y, x, -z+1/2 '
	 'x-y, -y, -z+1/2 '
	 'x-y, x, -z '
	 '-x, -x+y, -z+1/2 '
	 'x, x-y, z+1/2 '
	 'x-1/3, y+1/3, z+1/3 '
	 '-x-1/3, -y+1/3, -z+1/3 '
	 '-x+y-1/3, -x+1/3, z+1/3 '
	 '-x+y-1/3, y+1/3, z-1/6 '
	 '-y-1/3, -x+1/3, z-1/6 '
	 '-y-1/3, x-y+1/3, z+1/3 '
	 'y-1/3, -x+y+1/3, -z+1/3 '
	 'y-1/3, x+1/3, -z-1/6 '
	 'x-y-1/3, -y+1/3, -z-1/6 '
	 'x-y-1/3, x+1/3, -z+1/3 '
	 '-x-1/3, -x+y+1/3, -z-1/6 '
	 'x-1/3, x-y+1/3, z-1/6 '
	 'x+1/3, y-1/3, z-1/3 '
	 '-x+1/3, -y-1/3, -z-1/3 '
	 '-x+y+1/3, -x-1/3, z-1/3 '
	 '-x+y+1/3, y-1/3, z+1/6 '
	 '-y+1/3, -x-1/3, z+1/6 '
	 '-y+1/3, x-y-1/3, z-1/3 '
	 'y+1/3, -x+y-1/3, -z-1/3 '
	 'y+1/3, x-1/3, -z+1/6 '
	 'x-y+1/3, -y-1/3, -z+1/6 '
	 'x-y+1/3, x-1/3, -z-1/3 '
	 '-x+1/3, -x+y-1/3, -z+1/6 '
	 'x+1/3, x-y-1/3, z+1/6 '
loop_
_atom_site_label
_atom_site_type_symbol
_atom_site_site_symmetry_multiplicity
_atom_site_fract_x
_atom_site_fract_y
_atom_site_fract_z
_atom_site_occupancy
_atom_site_B_iso_or_equiv
Al1 Al+3  12 0 0 0.148 1 0.6737556
O1 O-2  18 0.306 0 0.25 1 0.6737556

data_phase_Si_23
_pd_block_id Si_23
_pd_block_diffractogram_id pattern_23

_pd_phase_name Si_23
_cell_length_a 5.443252
_cell_length_b 5.443252
_cell_length_c 5.443252
_cell_angle_alpha 90
_cell_angle_beta 90
_cell_angle_gamma 90
_cell_volume 161.2781
_symmetry_space_group_name_H-M Fd-3mS
loop_
	_symmetry_equiv_pos_as_xyz
	 'x, y, z '
	 '-x, z+1/2, -y+1/2 '
	 '-x+1/4, -y+1/4, -z+1/4 '
	 '-x+1/4, -z+1/4, -y+1/4 '
	 '-x+1/2, -z, y+1/2 '
	 '-x+1/2, y+1/2, -z '
	 '-x-1/4, z-1/4, y+1/4 '
	 '-x-1/4, y+1/4, z-1/4 '
	 '-y, -z+1/2, x+1/2 '
	 '-y, x+1/2, -z+1/2 '
	 '-y+1/4, -x+1/4, -z+1/4 '
	 '-y+1/4, -z+1/4, -x+1/4 '
	 '-y+1/2, -x, z+1/2 '
	 '-y+1/2, z+1/2, -x '
	 '-y-1/4, z+1/4, x-1/4 '
	 '-y-1/4, x-1/4, z+1/4 '
	 '-z, -x+1/2, y+1/2 '
	 '-z, y+1/2, -x+1/2 '
	 '-z+1/4, -x+1/4, -y+1/4 '
	 '-z+1/4, -y+1/4, -x+1/4 '
	 '-z+1/2, -y, x+1/2 '
	 '-z+1/2, x+1/2, -y '
	 '-z-1/4, y-1/4, x+1/4 '
	 '-z-1/4, x+1/4, y-1/4 '
	 'z, y, x '
	 'z, x, y '
	 'z+1/4, -y-1/4, x-1/4 '
	 'z+1/4, x-1/4, -y-1/4 '
	 'z+1/2, -x, -y+1/2 '
	 'z+1/2, -y+1/2, -x '
	 'z-1/4, -x-1/4, y+1/4 '
	 'z-1/4, y+1/4, -x-1/4 '
	 'y, z, x '
	 'y, x, z '
	 'y+1/4, -x-1/4, z-1/4 '
	 'y+1/4, z-1/4, -x-1/4 '
	 'y+1/2, -x+1/2, -z '
	 'y+1/2, -z, -x+1/2 '
	 'y-1/4, -z-1/4, x+1/4 '
	 'y-1/4, x+1/4, -z-1/4 '
	 'x, z, y '
	 '-x, -y+1/2, z+1/2 '
	 'x+1/4, -z-1/4, y-1/4 '
	 'x+1/4, y-1/4, -z-1/4 '
	 'x+1/2, -y, -z+1/2 '
	 'x+1/2, -z+1/2, -y '
	 'x-1/4, -y-1/4, z+1/4 '
	 'x-1/4, z+1/4, -y-1/4 '
	 'x+1/2, y+1/2, z '
	 '-x+1/2, z, -y+1/2 '
	 '-x-1/4, -y-1/4, -z+1/4 '
	 '-x-1/4, -z-1/4, -y+1/4 '
	 '-x, -z+1/2, y+1/2 '
	 '-x, y, -z '
	 '-x+1/4, z+1/4, y+1/4 '
	 '-x+1/4, y-1/4, z-1/4 '
	 '-y+1/2, -z, x+1/2 '
	 '-y+1/2, x, -z+1/2 '
	 '-y-1/4, -x-1/4, -z+1/4 '
	 '-y-1/4, -z-1/4, -x+1/4 '
	 '-y, -x+1/2, z+1/2 '
	 '-y, z, -x '
	 '-y+1/4, z-1/4, x-1/4 '
	 '-y+1/4, x+1/4, z+1/4 '
	 '-z+1/2, -x, y+1/2 '
	 '-z+1/2, y, -x+1/2 '
	 '-z-1/4, -x-1/4, -y+1/4 '
	 '-z-1/4, -y-1/4, -x+1/4 '
	 '-z, -y+1/2, x+1/2 '
	 '-z, x, -y '
	 '-z+1/4, y+1/4, x+1/4 '
	 '-z+1/4, x-1/4, y-1/4 '
	 'z+1/2, y+1/2, x '
	 'z+1/2, x+1/2, y '
	 'z-1/4, -y+1/4, x-1/4 '
	 'z-1/4, x+1/4, -y-1/4 '
	 'z, -x+1/2, -y+1/2 '
	 'z, -y, -x '
	 'z+1/4, -x+1/4, y+1/4 '
	 'z+1/4, y-1/4, -x-1/4 '
	 'y+1/2, z+1/2, x '
	 'y+1/2, x+1/2, z '
	 'y-1/4, -x+1/4, z-1/4 '
	 'y-1/4, z+1/4, -x-1/4 '
	 'y, -x, -z '
	 'y, -z+1/2, -x+1/2 '
	 'y+1/4, -z+1/4, x+1/4 '
	 'y+1/4, x-1/4, -z-1/4 '
	 'x+1/2, z+1/2, y '
	 '-x+1/2, -y, z+1/2 '
	 'x-1/4, -z+1/4, y-1/4 '
	 'x-1/4, y+1/4, -z-1/4 '
	 'x, -y+1/2, -z+1/2 '
	 'x, -z, -y '
	 'x+1/4, -y+1/4, z+1/4 '
	 'x+1/4, z-1/4, -y-1/4 '
	 'x+1/2, y, z+1/2 '
	 '-x+1/2, z+1/2, -y '
	 '-x-1/4, -y+1/4, -z-1/4 '
	 '-x-1/4, -z+1/4, -y-1/4 '
	 '-x, -z, y '
	 '-x, y+1/2, -z+1/2 '
	 '-x+1/4, z-1/4, y-1/4 '
	 '-x+1/4, y+1/4, z+1/4 '
	 '-y+1/2, -z+1/2, x '
	 '-y+1/2, x+1/2, -z '
	 '-y-1/4, -x+1/4, -z-1/4 '
	 '-y-1/4, -z+1/4, -x-1/4 '
	 '-y, -x, z '
	 '-y, z+1/2, -x+1/2 '
	 '-y+1/4, z+1/4, x+1/4 '
	 '-y+1/4, x-1/4, z-1/4 '
	 '-z+1/2, -x+1/2, y '
	 '-z+1/2, y+1/2, -x '
	 '-z-1/4, -x+1/4, -y-1/4 '
	 '-z-1/4, -y+1/4, -x-1/4 '
	 '-z, -y, x '
	 '-z, x+1/2, -y+1/2 '
	 '-z+1/4, y-1/4, x-1/4 '
	 '-z+1/4, x+1/4, y+1/4 '
	 'z+1/2, y, x+1/2 '
	 'z+1/2, x, y+1/2 '
	 'z-1/4, -y-1/4, x+1/4 '
	 'z-1/4, x-1/4, -y+1/4 '
	 'z, -x, -y '
	 'z, -y+1/2, -x+1/2 '
	 'z+1/4, -x-1/4, y-1/4 '
	 'z+1/4, y+1/4, -x+1/4 '
	 'y+1/2, z, x+1/2 '
	 'y+1/2, x, z+1/2 '
	 'y-1/4, -x-1/4, z+1/4 '
	 'y-1/4, z-1/4, -x+1/4 '
	 'y, -x+1/2, -z+1/2 '
	 'y, -z, -x '
	 'y+1/4, -z-1/4, x-1/4 '
	 'y+1/4, x+1/4, -z+1/4 '
	 'x+1/2, z, y+1/2 '
	 '-x+1/2, -y+1/2, z '
	 'x-1/4, -z-1/4, y+1/4 '
	 'x-1/4, y-1/4, -z+1/4 '
	 'x, -y, -z '
	 'x, -z+1/2, -y+1/2 '
	 'x+1/4, -y-1/4, z-1/4 '
	 'x+1/4, z+1/4, -y+1/4 '
	 'x, y+1/2, z+1/2 '
	 '-x, z, -y '
	 '-x+1/4, -y-1/4, -z-1/4 '
	 '-x+1/4, -z-1/4, -y-1/4 '
	 '-x+1/2, -z+1/2, y '
	 '-x+1/2, y, -z+1/2 '
	 '-x-1/4, z+1/4, y-1/4 '
	 '-x-1/4, y-1/4, z+1/4 '
	 '-y, -z, x '
	 '-y, x, -z '
	 '-y+1/4, -x-1/4, -z-1/4 '
	 '-y+1/4, -z-1/4, -x-1/4 '
	 '-y+1/2, -x+1/2, z '
	 '-y+1/2, z, -x+1/2 '
	 '-y-1/4, z-1/4, x+1/4 '
	 '-y-1/4, x+1/4, z-1/4 '
	 '-z, -x, y '
	 '-z, y, -x '
	 '-z+1/4, -x-1/4, -y-1/4 '
	 '-z+1/4, -y-1/4, -x-1/4 '
	 '-z+1/2, -y+1/2, x '
	 '-z+1/2, x, -y+1/2 '
	 '-z-1/4, y+1/4, x-1/4 '
	 '-z-1/4, x-1/4, y+1/4 '
	 'z, y+1/2, x+1/2 '
	 'z, x+1/2, y+1/2 '
	 'z+1/4, -y+1/4, x+1/4 '
	 'z+1/4, x+1/4, -y+1/4 '
	 'z+1/2, -x+1/2, -y '
	 'z+1/2, -y, -x+1/2 '
	 'z-1/4, -x+1/4, y-1/4 '
	 'z-1/4, y-1/4, -x+1/4 '
	 'y, z+1/2, x+1/2 '
	 'y, x+1/2, z+1/2 '
	 'y+1/4, -x+1/4, z+1/4 '
	 'y+1/4, z+1/4, -x+1/4 '
	 'y+1/2, -x, -z+1/2 '
	 'y+1/2, -z+1/2, -x '
	 'y-1/4, -z+1/4, x-1/4 '
	 'y-1/4, x-1/4, -z+1/4 '
	 'x, z+1/2, y+1/2 '
	 '-x, -y, z '
	 'x+1/4, -z+1/4, y+1/4 '
	 'x+1/4, y+1/4, -z+1/4 '
	 'x+1/2, -y+1/2, -z '
	 'x+1/2, -z, -y+1/2 '
	 'x-1/4, -y+1/4, z-1/4 '
	 'x-1/4, z-1/4, -y+1/4 '
loop_
_atom_site_label
_atom_site_type_symbol
_atom_site_site_symmetry_multiplicity
_atom_site_fract_x
_atom_site_fract_y
_atom_site_fract_z
_atom_site_occupancy
_atom_site_B_iso_or_equiv
Si1 Si   8 0 0 0 1 1.354369

data_phase_Al2O3_24
_pd_block_id Al2O3_24
_pd_block_diffractogram_id pattern_24

_pd_phase_name Al2O3_24
_cell_length_a 4.782154
_cell_length_b 4.782154
_cell_length_c 13.0618
_cell_angle_alpha 90
_cell_angle_beta 90
_cell_angle_gamma 120
_cell_volume 258.6907
_symmetry_space_group_name_H-M R-3cH
loop_
	_symmetry_equiv_pos_as_xyz
	 'x, y, z '
	 '-x, -y, -z '
	 '-x+y, -x, z '
	 '-x+y, y, z+1/2 '
	 '-y, -x, z+1/2 '
	 '-y, x-y, z '
	 'y, -x+y, -z '
	 'y, x, -z+1/2 '
	 'x-y, -y, -z+1/2 '
	 'x-y, x, -z '
	 '-x, -x+y, -z+1/2 '
	 'x, x-y, z+1/2 '
	 'x-1/3, y+1/3, z+1/3 '
	 '-x-1/3, -y+1/3, -z+1/3 '
	 '-x+y-1/3, -x+1/3, z+1/3 '
	 '-x+y-1/3, y+1/3, z-1/6 '
	 '-y-1/3, -x+1/3, z-1/6 '
	 '-y-1/3, x-y+1/3, z+1/3 '
	 'y-1/3, -x+y+1/3, -z+1/3 '
	 'y-1/3, x+1/3, -z-1/6 '
	 'x-y-1/3, -y+1/3, -z-1/6 '
	 'x-y-1/3, x+1/3, -z+1/3 '
	 '-x-1/3, -x+y+1/3, -z-1/6 '
	 'x-1/3, x-y+1/3, z-1/6 '
	 'x+1/3, y-1/3, z-1/3 '
	 '-x+1/3, -y-1/3, -z-1/3 '
	 '-x+y+1/3, -x-1/3, z-1/3 '
	 '-x+y+1/3, y-1/3, z+1/6 '
	 '-y+1/3, -x-1/3, z+1/6 '
	 '-y+1/3, x-y-1/3, z-1/3 '
	 'y+1/3, -x+y-1/3, -z-1/3 '
	 'y+1/3, x-1/3, -z+1/6 '
	 'x-y+1/3, -y-1/3, -z+1/6 '
	 'x-y+1/3, x-1/3, -z-1/3 '
	 '-x+1/3, -x+y-1/3, -z+1/6 '
	 'x+1/3, x-y-1/3, z+1/6 '
loop_
_atom_site_label
_atom_site_type_symbol
_atom_site_site_symmetry_multiplicity
_atom_site_fract_x
_atom_site_fract_y
_atom_site_fract_z
_atom_site_occupancy
_atom_site_B_iso_or_equiv
Al1 Al+3  12 0 0 0.148 1 0.6660265
O1 O-2  18 0.306 0 0.25 1 0.6660265

data_phase_Si_24
_pd_block_id Si_24
_pd_block_diffractogram_id pattern_24

_pd_phase_name Si_24
_cell_length_a 5.444251
_cell_length_b 5.444251
_cell_length_c 5.444251
_cell_angle_alpha 90
_cell_angle_beta 90
_cell_angle_gamma 90
_cell_volume 161.3669
_symmetry_space_group_name_H-M Fd-3mS
loop_
	_symmetry_equiv_pos_as_xyz
	 'x, y, z '
	 '-x, z+1/2, -y+1/2 '
	 '-x+1/4, -y+1/4, -z+1/4 '
	 '-x+1/4, -z+1/4, -y+1/4 '
	 '-x+1/2, -z, y+1/2 '
	 '-x+1/2, y+1/2, -z '
	 '-x-1/4, z-1/4, y+1/4 '
	 '-x-1/4, y+1/4, z-1/4 '
	 '-y, -z+1/2, x+1/2 '
	 '-y, x+1/2, -z+1/2 '
	 '-y+1/4, -x+1/4, -z+1/4 '
	 '-y+1/4, -z+1/4, -x+1/4 '
	 '-y+1/2, -x, z+1/2 '
	 '-y+1/2, z+1/2, -x '
	 '-y-1/4, z+1/4, x-1/4 '
	 '-y-1/4, x-1/4, z+1/4 '
	 '-z, -x+1/2, y+1/2 '
	 '-z, y+1/2, -x+1/2 '
	 '-z+1/4, -x+1/4, -y+1/4 '
	 '-z+1/4, -y+1/4, -x+1/4 '
	 '-z+1/2, -y, x+1/2 '
	 '-z+1/2, x+1/2, -y '
	 '-z-1/4, y-1/4, x+1/4 '
	 '-z-1/4, x+1/4, y-1/4 '
	 'z, y, x '
	 'z, x, y '
	 'z+1/4, -y-1/4, x-1/4 '
	 'z+1/4, x-1/4, -y-1/4 '
	 'z+1/2, -x, -y+1/2 '
	 'z+1/2, -y+1/2, -x '
	 'z-1/4, -x-1/4, y+1/4 '
	 'z-1/4, y+1/4, -x-1/4 '
	 'y, z, x '
	 'y, x, z '
	 'y+1/4, -x-1/4, z-1/4 '
	 'y+1/4, z-1/4, -x-1/4 '
	 'y+1/2, -x+1/2, -z '
	 'y+1/2, -z, -x+1/2 '
	 'y-1/4, -z-1/4, x+1/4 '
	 'y-1/4, x+1/4, -z-1/4 '
	 'x, z, y '
	 '-x, -y+1/2, z+1/2 '
	 'x+1/4, -z-1/4, y-1/4 '
	 'x+1/4, y-1/4, -z-1/4 '
	 'x+1/2, -y, -z+1/2 '
	 'x+1/2, -z+1/2, -y '
	 'x-1/4, -y-1/4, z+1/4 '
	 'x-1/4, z+1/4, -y-1/4 '
	 'x+1/2, y+1/2, z '
	 '-x+1/2, z, -y+1/2 '
	 '-x-1/4, -y-1/4, -z+1/4 '
	 '-x-1/4, -z-1/4, -y+1/4 '
	 '-x, -z+1/2, y+1/2 '
	 '-x, y, -z '
	 '-x+1/4, z+1/4, y+1/4 '
	 '-x+1/4, y-1/4, z-1/4 '
	 '-y+1/2, -z, x+1/2 '
	 '-y+1/2, x, -z+1/2 '
	 '-y-1/4, -x-1/4, -z+1/4 '
	 '-y-1/4, -z-1/4, -x+1/4 '
	 '-y, -x+1/2, z+1/2 '
	 '-y, z, -x '
	 '-y+1/4, z-1/4, x-1/4 '
	 '-y+1/4, x+1/4, z+1/4 '
	 '-z+1/2, -x, y+1/2 '
	 '-z+1/2, y, -x+1/2 '
	 '-z-1/4, -x-1/4, -y+1/4 '
	 '-z-1/4, -y-1/4, -x+1/4 '
	 '-z, -y+1/2, x+1/2 '
	 '-z, x, -y '
	 '-z+1/4, y+1/4, x+1/4 '
	 '-z+1/4, x-1/4, y-1/4 '
	 'z+1/2, y+1/2, x '
	 'z+1/2, x+1/2, y '
	 'z-1/4, -y+1/4, x-1/4 '
	 'z-1/4, x+1/4, -y-1/4 '
	 'z, -x+1/2, -y+1/2 '
	 'z, -y, -x '
	 'z+1/4, -x+1/4, y+1/4 '
	 'z+1/4, y-1/4, -x-1/4 '
	 'y+1/2, z+1/2, x '
	 'y+1/2, x+1/2, z '
	 'y-1/4, -x+1/4, z-1/4 '
	 'y-1/4, z+1/4, -x-1/4 '
	 'y, -x, -z '
	 'y, -z+1/2, -x+1/2 '
	 'y+1/4, -z+1/4, x+1/4 '
	 'y+1/4, x-1/4, -z-1/4 '
	 'x+1/2, z+1/2, y '
	 '-x+1/2, -y, z+1/2 '
	 'x-1/4, -z+1/4, y-1/4 '
	 'x-1/4, y+1/4, -z-1/4 '
	 'x, -y+1/2, -z+1/2 '
	 'x, -z, -y '
	 'x+1/4, -y+1/4, z+1/4 '
	 'x+1/4, z-1/4, -y-1/4 '
	 'x+1/2, y, z+1/2 '
	 '-x+1/2, z+1/2, -y '
	 '-x-1/4, -y+1/4, -z-1/4 '
	 '-x-1/4, -z+1/4, -y-1/4 '
	 '-x, -z, y '
	 '-x, y+1/2, -z+1/2 '
	 '-x+1/4, z-1/4, y-1/4 '
	 '-x+1/4, y+1/4, z+1/4 '
	 '-y+1/2, -z+1/2, x '
	 '-y+1/2, x+1/2, -z '
	 '-y-1/4, -x+1/4, -z-1/4 '
	 '-y-1/4, -z+1/4, -x-1/4 '
	 '-y, -x, z '
	 '-y, z+1/2, -x+1/2 '
	 '-y+1/4, z+1/4, x+1/4 '
	 '-y+1/4, x-1/4, z-1/4 '
	 '-z+1/2, -x+1/2, y '
	 '-z+1/2, y+1/2, -x '
	 '-z-1/4, -x+1/4, -y-1/4 '
	 '-z-1/4, -y+1/4, -x-1/4 '
	 '-z, -y, x '
	 '-z, x+1/2, -y+1/2 '
	 '-z+1/4, y-1/4, x-1/4 '
	 '-z+1/4, x+1/4, y+1/4 '
	 'z+1/2, y, x+1/2 '
	 'z+1/2, x, y+1/2 '
	 'z-1/4, -y-1/4, x+1/4 '
	 'z-1/4, x-1/4, -y+1/4 '
	 'z, -x, -y '
	 'z, -y+1/2, -x+1/2 '
	 'z+1/4, -x-1/4, y-1/4 '
	 'z+1/4, y+1/4, -x+1/4 '
	 'y+1/2, z, x+1/2 '
	 'y+1/2, x, z+1/2 '
	 'y-1/4, -x-1/4, z+1/4 '
	 'y-1/4, z-1/4, -x+1/4 '
	 'y, -x+1/2, -z+1/2 '
	 'y, -z, -x '
	 'y+1/4, -z-1/4, x-1/4 '
	 'y+1/4, x+1/4, -z+1/4 '
	 'x+1/2, z, y+1/2 '
	 '-x+1/2, -y+1/2, z '
	 'x-1/4, -z-1/4, y+1/4 '
	 'x-1/4, y-1/4, -z+1/4 '
	 'x, -y, -z '
	 'x, -z+1/2, -y+1/2 '
	 'x+1/4, -y-1/4, z-1/4 '
	 'x+1/4, z+1/4, -y+1/4 '
	 'x, y+1/2, z+1/2 '
	 '-x, z, -y '
	 '-x+1/4, -y-1/4, -z-1/4 '
	 '-x+1/4, -z-1/4, -y-1/4 '
	 '-x+1/2, -z+1/2, y '
	 '-x+1/2, y, -z+1/2 '
	 '-x-1/4, z+1/4, y-1/4 '
	 '-x-1/4, y-1/4, z+1/4 '
	 '-y, -z, x '
	 '-y, x, -z '
	 '-y+1/4, -x-1/4, -z-1/4 '
	 '-y+1/4, -z-1/4, -x-1/4 '
	 '-y+1/2, -x+1/2, z '
	 '-y+1/2, z, -x+1/2 '
	 '-y-1/4, z-1/4, x+1/4 '
	 '-y-1/4, x+1/4, z-1/4 '
	 '-z, -x, y '
	 '-z, y, -x '
	 '-z+1/4, -x-1/4, -y-1/4 '
	 '-z+1/4, -y-1/4, -x-1/4 '
	 '-z+1/2, -y+1/2, x '
	 '-z+1/2, x, -y+1/2 '
	 '-z-1/4, y+1/4, x-1/4 '
	 '-z-1/4, x-1/4, y+1/4 '
	 'z, y+1/2, x+1/2 '
	 'z, x+1/2, y+1/2 '
	 'z+1/4, -y+1/4, x+1/4 '
	 'z+1/4, x+1/4, -y+1/4 '
	 'z+1/2, -x+1/2, -y '
	 'z+1/2, -y, -x+1/2 '
	 'z-1/4, -x+1/4, y-1/4 '
	 'z-1/4, y-1/4, -x+1/4 '
	 'y, z+1/2, x+1/2 '
	 'y, x+1/2, z+1/2 '
	 'y+1/4, -x+1/4, z+1/4 '
	 'y+1/4, z+1/4, -x+1/4 '
	 'y+1/2, -x, -z+1/2 '
	 'y+1/2, -z+1/2, -x '
	 'y-1/4, -z+1/4, x-1/4 '
	 'y-1/4, x-1/4, -z+1/4 '
	 'x, z+1/2, y+1/2 '
	 '-x, -y, z '
	 'x+1/4, -z+1/4, y+1/4 '
	 'x+1/4, y+1/4, -z+1/4 '
	 'x+1/2, -y+1/2, -z '
	 'x+1/2, -z, -y+1/2 '
	 'x-1/4, -y+1/4, z-1/4 '
	 'x-1/4, z-1/4, -y+1/4 '
loop_
_atom_site_label
_atom_site_type_symbol
_atom_site_site_symmetry_multiplicity
_atom_site_fract_x
_atom_site_fract_y
_atom_site_fract_z
_atom_site_occupancy
_atom_site_B_iso_or_equiv
Si1 Si   8 0 0 0 1 1.442505

data_phase_Al2O3_25
_pd_block_id Al2O3_25
_pd_block_diffractogram_id pattern_25

_pd_phase_name Al2O3_25
_cell_length_a 4.783906
_cell_length_b 4.783906
_cell_length_c 13.06724
_cell_angle_alpha 90
_cell_angle_beta 90
_cell_angle_gamma 120
_cell_volume 258.9881
_symmetry_space_group_name_H-M R-3cH
loop_
	_symmetry_equiv_pos_as_xyz
	 'x, y, z '
	 '-x, -y, -z '
	 '-x+y, -x, z '
	 '-x+y, y, z+1/2 '
	 '-y, -x, z+1/2 '
	 '-y, x-y, z '
	 'y, -x+y, -z '
	 'y, x, -z+1/2 '
	 'x-y, -y, -z+1/2 '
	 'x-y, x, -z '
	 '-x, -x+y, -z+1/2 '
	 'x, x-y, z+1/2 '
	 'x-1/3, y+1/3, z+1/3 '
	 '-x-1/3, -y+1/3, -z+1/3 '
	 '-x+y-1/3, -x+1/3, z+1/3 '
	 '-x+y-1/3, y+1/3, z-1/6 '
	 '-y-1/3, -x+1/3, z-1/6 '
	 '-y-1/3, x-y+1/3, z+1/3 '
	 'y-1/3, -x+y+1/3, -z+1/3 '
	 'y-1/3, x+1/3, -z-1/6 '
	 'x-y-1/3, -y+1/3, -z-1/6 '
	 'x-y-1/3, x+1/3, -z+1/3 '
	 '-x-1/3, -x+y+1/3, -z-1/6 '
	 'x-1/3, x-y+1/3, z-1/6 '
	 'x+1/3, y-1/3, z-1/3 '
	 '-x+1/3, -y-1/3, -z-1/3 '
	 '-x+y+1/3, -x-1/3, z-1/3 '
	 '-x+y+1/3, y-1/3, z+1/6 '
	 '-y+1/3, -x-1/3, z+1/6 '
	 '-y+1/3, x-y-1/3, z-1/3 '
	 'y+1/3, -x+y-1/3, -z-1/3 '
	 'y+1/3, x-1/3, -z+1/6 '
	 'x-y+1/3, -y-1/3, -z+1/6 '
	 'x-y+1/3, x-1/3, -z-1/3 '
	 '-x+1/3, -x+y-1/3, -z+1/6 '
	 'x+1/3, x-y-1/3, z+1/6 '
loop_
_atom_site_label
_atom_site_type_symbol
_atom_site_site_symmetry_multiplicity
_atom_site_fract_x
_atom_site_fract_y
_atom_site_fract_z
_atom_site_occupancy
_atom_site_B_iso_or_equiv
Al1 Al+3  12 0 0 0.148 1 0.7001464
O1 O-2  18 0.306 0 0.25 1 0.7001464

data_phase_Si_25
_pd_block_id Si_25
_pd_block_diffractogram_id pattern_25

_pd_phase_name Si_25
_cell_length_a 5.445248
_cell_length_b 5.445248
_cell_length_c 5.445248
_cell_angle_alpha 90
_cell_angle_beta 90
_cell_angle_gamma 90
_cell_volume 161.4556
_symmetry_space_group_name_H-M Fd-3mS
loop_
	_symmetry_equiv_pos_as_xyz
	 'x, y, z '
	 '-x, z+1/2, -y+1/2 '
	 '-x+1/4, -y+1/4, -z+1/4 '
	 '-x+1/4, -z+1/4, -y+1/4 '
	 '-x+1/2, -z, y+1/2 '
	 '-x+1/2, y+1/2, -z '
	 '-x-1/4, z-1/4, y+1/4 '
	 '-x-1/4, y+1/4, z-1/4 '
	 '-y, -z+1/2, x+1/2 '
	 '-y, x+1/2, -z+1/2 '
	 '-y+1/4, -x+1/4, -z+1/4 '
	 '-y+1/4, -z+1/4, -x+1/4 '
	 '-y+1/2, -x, z+1/2 '
	 '-y+1/2, z+1/2, -x '
	 '-y-1/4, z+1/4, x-1/4 '
	 '-y-1/4, x-1/4, z+1/4 '
	 '-z, -x+1/2, y+1/2 '
	 '-z, y+1/2, -x+1/2 '
	 '-z+1/4, -x+1/4, -y+1/4 '
	 '-z+1/4, -y+1/4, -x+1/4 '
	 '-z+1/2, -y, x+1/2 '
	 '-z+1/2, x+1/2, -y '
	 '-z-1/4, y-1/4, x+1/4 '
	 '-z-1/4, x+1/4, y-1/4 '
	 'z, y, x '
	 'z, x, y '
	 'z+1/4, -y-1/4, x-1/4 '
	 'z+1/4, x-1/4, -y-1/4 '
	 'z+1/2, -x, -y+1/2 '
	 'z+1/2, -y+1/2, -x '
	 'z-1/4, -x-1/4, y+1/4 '
	 'z-1/4, y+1/4, -x-1/4 '
	 'y, z, x '
	 'y, x, z '
	 'y+1/4, -x-1/4, z-1/4 '
	 'y+1/4, z-1/4, -x-1/4 '
	 'y+1/2, -x+1/2, -z '
	 'y+1/2, -z, -x+1/2 '
	 'y-1/4, -z-1/4, x+1/4 '
	 'y-1/4, x+1/4, -z-1/4 '
	 'x, z, y '
	 '-x, -y+1/2, z+1/2 '
	 'x+1/4, -z-1/4, y-1/4 '
	 'x+1/4, y-1/4, -z-1/4 '
	 'x+1/2, -y, -z+1/2 '
	 'x+1/2, -z+1/2, -y '
	 'x-1/4, -y-1/4, z+1/4 '
	 'x-1/4, z+1/4, -y-1/4 '
	 'x+1/2, y+1/2, z '
	 '-x+1/2, z, -y+1/2 '
	 '-x-1/4, -y-1/4, -z+1/4 '
	 '-x-1/4, -z-1/4, -y+1/4 '
	 '-x, -z+1/2, y+1/2 '
	 '-x, y, -z '
	 '-x+1/4, z+1/4, y+1/4 '
	 '-x+1/4, y-1/4, z-1/4 '
	 '-y+1/2, -z, x+1/2 '
	 '-y+1/2, x, -z+1/2 '
	 '-y-1/4, -x-1/4, -z+1/4 '
	 '-y-1/4, -z-1/4, -x+1/4 '
	 '-y, -x+1/2, z+1/2 '
	 '-y, z, -x '
	 '-y+1/4, z-1/4, x-1/4 '
	 '-y+1/4, x+1/4, z+1/4 '
	 '-z+1/2, -x, y+1/2 '
	 '-z+1/2, y, -x+1/2 '
	 '-z-1/4, -x-1/4, -y+1/4 '
	 '-z-1/4, -y-1/4, -x+1/4 '
	 '-z, -y+1/2, x+1/2 '
	 '-z, x, -y '
	 '-z+1/4, y+1/4, x+1/4 '
	 '-z+1/4, x-1/4, y-1/4 '
	 'z+1/2, y+1/2, x '
	 'z+1/2, x+1/2, y '
	 'z-1/4, -y+1/4, x-1/4 '
	 'z-1/4, x+1/4, -y-1/4 '
	 'z, -x+1/2, -y+1/2 '
	 'z, -y, -x '
	 'z+1/4, -x+1/4, y+1/4 '
	 'z+1/4, y-1/4, -x-1/4 '
	 'y+1/2, z+1/2, x '
	 'y+1/2, x+1/2, z '
	 'y-1/4, -x+1/4, z-1/4 '
	 'y-1/4, z+1/4, -x-1/4 '
	 'y, -x, -z '
	 'y, -z+1/2, -x+1/2 '
	 'y+1/4, -z+1/4, x+1/4 '
	 'y+1/4, x-1/4, -z-1/4 '
	 'x+1/2, z+1/2, y '
	 '-x+1/2, -y, z+1/2 '
	 'x-1/4, -z+1/4, y-1/4 '
	 'x-1/4, y+1/4, -z-1/4 '
	 'x, -y+1/2, -z+1/2 '
	 'x, -z, -y '
	 'x+1/4, -y+1/4, z+1/4 '
	 'x+1/4, z-1/4, -y-1/4 '
	 'x+1/2, y, z+1/2 '
	 '-x+1/2, z+1/2, -y '
	 '-x-1/4, -y+1/4, -z-1/4 '
	 '-x-1/4, -z+1/4, -y-1/4 '
	 '-x, -z, y '
	 '-x, y+1/2, -z+1/2 '
	 '-x+1/4, z-1/4, y-1/4 '
	 '-x+1/4, y+1/4, z+1/4 '
	 '-y+1/2, -z+1/2, x '
	 '-y+1/2, x+1/2, -z '
	 '-y-1/4, -x+1/4, -z-1/4 '
	 '-y-1/4, -z+1/4, -x-1/4 '
	 '-y, -x, z '
	 '-y, z+1/2, -x+1/2 '
	 '-y+1/4, z+1/4, x+1/4 '
	 '-y+1/4, x-1/4, z-1/4 '
	 '-z+1/2, -x+1/2, y '
	 '-z+1/2, y+1/2, -x '
	 '-z-1/4, -x+1/4, -y-1/4 '
	 '-z-1/4, -y+1/4, -x-1/4 '
	 '-z, -y, x '
	 '-z, x+1/2, -y+1/2 '
	 '-z+1/4, y-1/4, x-1/4 '
	 '-z+1/4, x+1/4, y+1/4 '
	 'z+1/2, y, x+1/2 '
	 'z+1/2, x, y+1/2 '
	 'z-1/4, -y-1/4, x+1/4 '
	 'z-1/4, x-1/4, -y+1/4 '
	 'z, -x, -y '
	 'z, -y+1/2, -x+1/2 '
	 'z+1/4, -x-1/4, y-1/4 '
	 'z+1/4, y+1/4, -x+1/4 '
	 'y+1/2, z, x+1/2 '
	 'y+1/2, x, z+1/2 '
	 'y-1/4, -x-1/4, z+1/4 '
	 'y-1/4, z-1/4, -x+1/4 '
	 'y, -x+1/2, -z+1/2 '
	 'y, -z, -x '
	 'y+1/4, -z-1/4, x-1/4 '
	 'y+1/4, x+1/4, -z+1/4 '
	 'x+1/2, z, y+1/2 '
	 '-x+1/2, -y+1/2, z '
	 'x-1/4, -z-1/4, y+1/4 '
	 'x-1/4, y-1/4, -z+1/4 '
	 'x, -y, -z '
	 'x, -z+1/2, -y+1/2 '
	 'x+1/4, -y-1/4, z-1/4 '
	 'x+1/4, z+1/4, -y+1/4 '
	 'x, y+1/2, z+1/2 '
	 '-x, z, -y '
	 '-x+1/4, -y-1/4, -z-1/4 '
	 '-x+1/4, -z-1/4, -y-1/4 '
	 '-x+1/2, -z+1/2, y '
	 '-x+1/2, y, -z+1/2 '
	 '-x-1/4, z+1/4, y-1/4 '
	 '-x-1/4, y-1/4, z+1/4 '
	 '-y, -z, x '
	 '-y, x, -z '
	 '-y+1/4, -x-1/4, -z-1/4 '
	 '-y+1/4, -z-1/4, -x-1/4 '
	 '-y+1/2, -x+1/2, z '
	 '-y+1/2, z, -x+1/2 '
	 '-y-1/4, z-1/4, x+1/4 '
	 '-y-1/4, x+1/4, z-1/4 '
	 '-z, -x, y '
	 '-z, y, -x '
	 '-z+1/4, -x-1/4, -y-1/4 '
	 '-z+1/4, -y-1/4, -x-1/4 '
	 '-z+1/2, -y+1/2, x '
	 '-z+1/2, x, -y+1/2 '
	 '-z-1/4, y+1/4, x-1/4 '
	 '-z-1/4, x-1/4, y+1/4 '
	 'z, y+1/2, x+1/2 '
	 'z, x+1/2, y+1/2 '
	 'z+1/4, -y+1/4, x+1/4 '
	 'z+1/4, x+1/4, -y+1/4 '
	 'z+1/2, -x+1/2, -y '
	 'z+1/2, -y, -x+1/2 '
	 'z-1/4, -x+1/4, y-1/4 '
	 'z-1/4, y-1/4, -x+1/4 '
	 'y, z+1/2, x+1/2 '
	 'y, x+1/2, z+1/2 '
	 'y+1/4, -x+1/4, z+1/4 '
	 'y+1/4, z+1/4, -x+1/4 '
	 'y+1/2, -x, -z+1/2 '
	 'y+1/2, -z+1/2, -x '
	 'y-1/4, -z+1/4, x-1/4 '
	 'y-1/4, x-1/4, -z+1/4 '
	 'x, z+1/2, y+1/2 '
	 '-x, -y, z '
	 'x+1/4, -z+1/4, y+1/4 '
	 'x+1/4, y+1/4, -z+1/4 '
	 'x+1/2, -y+1/2, -z '
	 'x+1/2, -z, -y+1/2 '
	 'x-1/4, -y+1/4, z-1/4 '
	 'x-1/4, z-1/4, -y+1/4 '
loop_
_atom_site_label
_atom_site_type_symbol
_atom_site_site_symmetry_multiplicity
_atom_site_fract_x
_atom_site_fract_y
_atom_site_fract_z
_atom_site_occupancy
_atom_site_B_iso_or_equiv
Si1 Si   8 0 0 0 1 1.517501

data_phase_Al2O3_26
_pd_block_id Al2O3_26
_pd_block_diffractogram_id pattern_26

_pd_phase_name Al2O3_26
_cell_length_a 4.785693
_cell_length_b 4.785693
_cell_length_c 13.07256
_cell_angle_alpha 90
_cell_angle_beta 90
_cell_angle_gamma 120
_cell_volume 259.2872
_symmetry_space_group_name_H-M R-3cH
loop_
	_symmetry_equiv_pos_as_xyz
	 'x, y, z '
	 '-x, -y, -z '
	 '-x+y, -x, z '
	 '-x+y, y, z+1/2 '
	 '-y, -x, z+1/2 '
	 '-y, x-y, z '
	 'y, -x+y, -z '
	 'y, x, -z+1/2 '
	 'x-y, -y, -z+1/2 '
	 'x-y, x, -z '
	 '-x, -x+y, -z+1/2 '
	 'x, x-y, z+1/2 '
	 'x-1/3, y+1/3, z+1/3 '
	 '-x-1/3, -y+1/3, -z+1/3 '
	 '-x+y-1/3, -x+1/3, z+1/3 '
	 '-x+y-1/3, y+1/3, z-1/6 '
	 '-y-1/3, -x+1/3, z-1/6 '
	 '-y-1/3, x-y+1/3, z+1/3 '
	 'y-1/3, -x+y+1/3, -z+1/3 '
	 'y-1/3, x+1/3, -z-1/6 '
	 'x-y-1/3, -y+1/3, -z-1/6 '
	 'x-y-1/3, x+1/3, -z+1/3 '
	 '-x-1/3, -x+y+1/3, -z-1/6 '
	 'x-1/3, x-y+1/3, z-1/6 '
	 'x+1/3, y-1/3, z-1/3 '
	 '-x+1/3, -y-1/3, -z-1/3 '
	 '-x+y+1/3, -x-1/3, z-1/3 '
	 '-x+y+1/3, y-1/3, z+1/6 '
	 '-y+1/3, -x-1/3, z+1/6 '
	 '-y+1/3, x-y-1/3, z-1/3 '
	 'y+1/3, -x+y-1/3, -z-1/3 '
	 'y+1/3, x-1/3, -z+1/6 '
	 'x-y+1/3, -y-1/3, -z+1/6 '
	 'x-y+1/3, x-1/3, -z-1/3 '
	 '-x+1/3, -x+y-1/3, -z+1/6 '
	 'x+1/3, x-y-1/3, z+1/6 '
loop_
_atom_site_label
_atom_site_type_symbol
_atom_site_site_symmetry_multiplicity
_atom_site_fract_x
_atom_site_fract_y
_atom_site_fract_z
_atom_site_occupancy
_atom_site_B_iso_or_equiv
Al1 Al+3  12 0 0 0.148 1 0.7517506
O1 O-2  18 0.306 0 0.25 1 0.7517506

data_phase_Si_26
_pd_block_id Si_26
_pd_block_diffractogram_id pattern_26

_pd_phase_name Si_26
_cell_length_a 5.446279
_cell_length_b 5.446279
_cell_length_c 5.446279
_cell_angle_alpha 90
_cell_angle_beta 90
_cell_angle_gamma 90
_cell_volume 161.5473
_symmetry_space_group_name_H-M Fd-3mS
loop_
	_symmetry_equiv_pos_as_xyz
	 'x, y, z '
	 '-x, z+1/2, -y+1/2 '
	 '-x+1/4, -y+1/4, -z+1/4 '
	 '-x+1/4, -z+1/4, -y+1/4 '
	 '-x+1/2, -z, y+1/2 '
	 '-x+1/2, y+1/2, -z '
	 '-x-1/4, z-1/4, y+1/4 '
	 '-x-1/4, y+1/4, z-1/4 '
	 '-y, -z+1/2, x+1/2 '
	 '-y, x+1/2, -z+1/2 '
	 '-y+1/4, -x+1/4, -z+1/4 '
	 '-y+1/4, -z+1/4, -x+1/4 '
	 '-y+1/2, -x, z+1/2 '
	 '-y+1/2, z+1/2, -x '
	 '-y-1/4, z+1/4, x-1/4 '
	 '-y-1/4, x-1/4, z+1/4 '
	 '-z, -x+1/2, y+1/2 '
	 '-z, y+1/2, -x+1/2 '
	 '-z+1/4, -x+1/4, -y+1/4 '
	 '-z+1/4, -y+1/4, -x+1/4 '
	 '-z+1/2, -y, x+1/2 '
	 '-z+1/2, x+1/2, -y '
	 '-z-1/4, y-1/4, x+1/4 '
	 '-z-1/4, x+1/4, y-1/4 '
	 'z, y, x '
	 'z, x, y '
	 'z+1/4, -y-1/4, x-1/4 '
	 'z+1/4, x-1/4, -y-1/4 '
	 'z+1/2, -x, -y+1/2 '
	 'z+1/2, -y+1/2, -x '
	 'z-1/4, -x-1/4, y+1/4 '
	 'z-1/4, y+1/4, -x-1/4 '
	 'y, z, x '
	 'y, x, z '
	 'y+1/4, -x-1/4, z-1/4 '
	 'y+1/4, z-1/4, -x-1/4 '
	 'y+1/2, -x+1/2, -z '
	 'y+1/2, -z, -x+1/2 '
	 'y-1/4, -z-1/4, x+1/4 '
	 'y-1/4, x+1/4, -z-1/4 '
	 'x, z, y '
	 '-x, -y+1/2, z+1/2 '
	 'x+1/4, -z-1/4, y-1/4 '
	 'x+1/4, y-1/4, -z-1/4 '
	 'x+1/2, -y, -z+1/2 '
	 'x+1/2, -z+1/2, -y '
	 'x-1/4, -y-1/4, z+1/4 '
	 'x-1/4, z+1/4, -y-1/4 '
	 'x+1/2, y+1/2, z '
	 '-x+1/2, z, -y+1/2 '
	 '-x-1/4, -y-1/4, -z+1/4 '
	 '-x-1/4, -z-1/4, -y+1/4 '
	 '-x, -z+1/2, y+1/2 '
	 '-x, y, -z '
	 '-x+1/4, z+1/4, y+1/4 '
	 '-x+1/4, y-1/4, z-1/4 '
	 '-y+1/2, -z, x+1/2 '
	 '-y+1/2, x, -z+1/2 '
	 '-y-1/4, -x-1/4, -z+1/4 '
	 '-y-1/4, -z-1/4, -x+1/4 '
	 '-y, -x+1/2, z+1/2 '
	 '-y, z, -x '
	 '-y+1/4, z-1/4, x-1/4 '
	 '-y+1/4, x+1/4, z+1/4 '
	 '-z+1/2, -x, y+1/2 '
	 '-z+1/2, y, -x+1/2 '
	 '-z-1/4, -x-1/4, -y+1/4 '
	 '-z-1/4, -y-1/4, -x+1/4 '
	 '-z, -y+1/2, x+1/2 '
	 '-z, x, -y '
	 '-z+1/4, y+1/4, x+1/4 '
	 '-z+1/4, x-1/4, y-1/4 '
	 'z+1/2, y+1/2, x '
	 'z+1/2, x+1/2, y '
	 'z-1/4, -y+1/4, x-1/4 '
	 'z-1/4, x+1/4, -y-1/4 '
	 'z, -x+1/2, -y+1/2 '
	 'z, -y, -x '
	 'z+1/4, -x+1/4, y+1/4 '
	 'z+1/4, y-1/4, -x-1/4 '
	 'y+1/2, z+1/2, x '
	 'y+1/2, x+1/2, z '
	 'y-1/4, -x+1/4, z-1/4 '
	 'y-1/4, z+1/4, -x-1/4 '
	 'y, -x, -z '
	 'y, -z+1/2, -x+1/2 '
	 'y+1/4, -z+1/4, x+1/4 '
	 'y+1/4, x-1/4, -z-1/4 '
	 'x+1/2, z+1/2, y '
	 '-x+1/2, -y, z+1/2 '
	 'x-1/4, -z+1/4, y-1/4 '
	 'x-1/4, y+1/4, -z-1/4 '
	 'x, -y+1/2, -z+1/2 '
	 'x, -z, -y '
	 'x+1/4, -y+1/4, z+1/4 '
	 'x+1/4, z-1/4, -y-1/4 '
	 'x+1/2, y, z+1/2 '
	 '-x+1/2, z+1/2, -y '
	 '-x-1/4, -y+1/4, -z-1/4 '
	 '-x-1/4, -z+1/4, -y-1/4 '
	 '-x, -z, y '
	 '-x, y+1/2, -z+1/2 '
	 '-x+1/4, z-1/4, y-1/4 '
	 '-x+1/4, y+1/4, z+1/4 '
	 '-y+1/2, -z+1/2, x '
	 '-y+1/2, x+1/2, -z '
	 '-y-1/4, -x+1/4, -z-1/4 '
	 '-y-1/4, -z+1/4, -x-1/4 '
	 '-y, -x, z '
	 '-y, z+1/2, -x+1/2 '
	 '-y+1/4, z+1/4, x+1/4 '
	 '-y+1/4, x-1/4, z-1/4 '
	 '-z+1/2, -x+1/2, y '
	 '-z+1/2, y+1/2, -x '
	 '-z-1/4, -x+1/4, -y-1/4 '
	 '-z-1/4, -y+1/4, -x-1/4 '
	 '-z, -y, x '
	 '-z, x+1/2, -y+1/2 '
	 '-z+1/4, y-1/4, x-1/4 '
	 '-z+1/4, x+1/4, y+1/4 '
	 'z+1/2, y, x+1/2 '
	 'z+1/2, x, y+1/2 '
	 'z-1/4, -y-1/4, x+1/4 '
	 'z-1/4, x-1/4, -y+1/4 '
	 'z, -x, -y '
	 'z, -y+1/2, -x+1/2 '
	 'z+1/4, -x-1/4, y-1/4 '
	 'z+1/4, y+1/4, -x+1/4 '
	 'y+1/2, z, x+1/2 '
	 'y+1/2, x, z+1/2 '
	 'y-1/4, -x-1/4, z+1/4 '
	 'y-1/4, z-1/4, -x+1/4 '
	 'y, -x+1/2, -z+1/2 '
	 'y, -z, -x '
	 'y+1/4, -z-1/4, x-1/4 '
	 'y+1/4, x+1/4, -z+1/4 '
	 'x+1/2, z, y+1/2 '
	 '-x+1/2, -y+1/2, z '
	 'x-1/4, -z-1/4, y+1/4 '
	 'x-1/4, y-1/4, -z+1/4 '
	 'x, -y, -z '
	 'x, -z+1/2, -y+1/2 '
	 'x+1/4, -y-1/4, z-1/4 '
	 'x+1/4, z+1/4, -y+1/4 '
	 'x, y+1/2, z+1/2 '
	 '-x, z, -y '
	 '-x+1/4, -y-1/4, -z-1/4 '
	 '-x+1/4, -z-1/4, -y-1/4 '
	 '-x+1/2, -z+1/2, y '
	 '-x+1/2, y, -z+1/2 '
	 '-x-1/4, z+1/4, y-1/4 '
	 '-x-1/4, y-1/4, z+1/4 '
	 '-y, -z, x '
	 '-y, x, -z '
	 '-y+1/4, -x-1/4, -z-1/4 '
	 '-y+1/4, -z-1/4, -x-1/4 '
	 '-y+1/2, -x+1/2, z '
	 '-y+1/2, z, -x+1/2 '
	 '-y-1/4, z-1/4, x+1/4 '
	 '-y-1/4, x+1/4, z-1/4 '
	 '-z, -x, y '
	 '-z, y, -x '
	 '-z+1/4, -x-1/4, -y-1/4 '
	 '-z+1/4, -y-1/4, -x-1/4 '
	 '-z+1/2, -y+1/2, x '
	 '-z+1/2, x, -y+1/2 '
	 '-z-1/4, y+1/4, x-1/4 '
	 '-z-1/4, x-1/4, y+1/4 '
	 'z, y+1/2, x+1/2 '
	 'z, x+1/2, y+1/2 '
	 'z+1/4, -y+1/4, x+1/4 '
	 'z+1/4, x+1/4, -y+1/4 '
	 'z+1/2, -x+1/2, -y '
	 'z+1/2, -y, -x+1/2 '
	 'z-1/4, -x+1/4, y-1/4 '
	 'z-1/4, y-1/4, -x+1/4 '
	 'y, z+1/2, x+1/2 '
	 'y, x+1/2, z+1/2 '
	 'y+1/4, -x+1/4, z+1/4 '
	 'y+1/4, z+1/4, -x+1/4 '
	 'y+1/2, -x, -z+1/2 '
	 'y+1/2, -z+1/2, -x '
	 'y-1/4, -z+1/4, x-1/4 '
	 'y-1/4, x-1/4, -z+1/4 '
	 'x, z+1/2, y+1/2 '
	 '-x, -y, z '
	 'x+1/4, -z+1/4, y+1/4 '
	 'x+1/4, y+1/4, -z+1/4 '
	 'x+1/2, -y+1/2, -z '
	 'x+1/2, -z, -y+1/2 '
	 'x-1/4, -y+1/4, z-1/4 '
	 'x-1/4, z-1/4, -y+1/4 '
loop_
_atom_site_label
_atom_site_type_symbol
_atom_site_site_symmetry_multiplicity
_atom_site_fract_x
_atom_site_fract_y
_atom_site_fract_z
_atom_site_occupancy
_atom_site_B_iso_or_equiv
Si1 Si   8 0 0 0 1 1.611981

data_phase_Al2O3_27
_pd_block_id Al2O3_27
_pd_block_diffractogram_id pattern_27

_pd_phase_name Al2O3_27
_cell_length_a 4.787397
_cell_length_b 4.787397
_cell_length_c 13.07781
_cell_angle_alpha 90
_cell_angle_beta 90
_cell_angle_gamma 120
_cell_volume 259.5761
_symmetry_space_group_name_H-M R-3cH
loop_
	_symmetry_equiv_pos_as_xyz
	 'x, y, z '
	 '-x, -y, -z '
	 '-x+y, -x, z '
	 '-x+y, y, z+1/2 '
	 '-y, -x, z+1/2 '
	 '-y, x-y, z '
	 'y, -x+y, -z '
	 'y, x, -z+1/2 '
	 'x-y, -y, -z+1/2 '
	 'x-y, x, -z '
	 '-x, -x+y, -z+1/2 '
	 'x, x-y, z+1/2 '
	 'x-1/3, y+1/3, z+1/3 '
	 '-x-1/3, -y+1/3, -z+1/3 '
	 '-x+y-1/3, -x+1/3, z+1/3 '
	 '-x+y-1/3, y+1/3, z-1/6 '
	 '-y-1/3, -x+1/3, z-1/6 '
	 '-y-1/3, x-y+1/3, z+1/3 '
	 'y-1/3, -x+y+1/3, -z+1/3 '
	 'y-1/3, x+1/3, -z-1/6 '
	 'x-y-1/3, -y+1/3, -z-1/6 '
	 'x-y-1/3, x+1/3, -z+1/3 '
	 '-x-1/3, -x+y+1/3, -z-1/6 '
	 'x-1/3, x-y+1/3, z-1/6 '
	 'x+1/3, y-1/3, z-1/3 '
	 '-x+1/3, -y-1/3, -z-1/3 '
	 '-x+y+1/3, -x-1/3, z-1/3 '
	 '-x+y+1/3, y-1/3, z+1/6 '
	 '-y+1/3, -x-1/3, z+1/6 '
	 '-y+1/3, x-y-1/3, z-1/3 '
	 'y+1/3, -x+y-1/3, -z-1/3 '
	 'y+1/3, x-1/3, -z+1/6 '
	 'x-y+1/3, -y-1/3, -z+1/6 '
	 'x-y+1/3, x-1/3, -z-1/3 '
	 '-x+1/3, -x+y-1/3, -z+1/6 '
	 'x+1/3, x-y-1/3, z+1/6 '
loop_
_atom_site_label
_atom_site_type_symbol
_atom_site_site_symmetry_multiplicity
_atom_site_fract_x
_atom_site_fract_y
_atom_site_fract_z
_atom_site_occupancy
_atom_site_B_iso_or_equiv
Al1 Al+3  12 0 0 0.148 1 0.7634044
O1 O-2  18 0.306 0 0.25 1 0.7634044

data_phase_Si_27
_pd_block_id Si_27
_pd_block_diffractogram_id pattern_27

_pd_phase_name Si_27
_cell_length_a 5.447243
_cell_length_b 5.447243
_cell_length_c 5.447243
_cell_angle_alpha 90
_cell_angle_beta 90
_cell_angle_gamma 90
_cell_volume 161.6331
_symmetry_space_group_name_H-M Fd-3mS
loop_
	_symmetry_equiv_pos_as_xyz
	 'x, y, z '
	 '-x, z+1/2, -y+1/2 '
	 '-x+1/4, -y+1/4, -z+1/4 '
	 '-x+1/4, -z+1/4, -y+1/4 '
	 '-x+1/2, -z, y+1/2 '
	 '-x+1/2, y+1/2, -z '
	 '-x-1/4, z-1/4, y+1/4 '
	 '-x-1/4, y+1/4, z-1/4 '
	 '-y, -z+1/2, x+1/2 '
	 '-y, x+1/2, -z+1/2 '
	 '-y+1/4, -x+1/4, -z+1/4 '
	 '-y+1/4, -z+1/4, -x+1/4 '
	 '-y+1/2, -x, z+1/2 '
	 '-y+1/2, z+1/2, -x '
	 '-y-1/4, z+1/4, x-1/4 '
	 '-y-1/4, x-1/4, z+1/4 '
	 '-z, -x+1/2, y+1/2 '
	 '-z, y+1/2, -x+1/2 '
	 '-z+1/4, -x+1/4, -y+1/4 '
	 '-z+1/4, -y+1/4, -x+1/4 '
	 '-z+1/2, -y, x+1/2 '
	 '-z+1/2, x+1/2, -y '
	 '-z-1/4, y-1/4, x+1/4 '
	 '-z-1/4, x+1/4, y-1/4 '
	 'z, y, x '
	 'z, x, y '
	 'z+1/4, -y-1/4, x-1/4 '
	 'z+1/4, x-1/4, -y-1/4 '
	 'z+1/2, -x, -y+1/2 '
	 'z+1/2, -y+1/2, -x '
	 'z-1/4, -x-1/4, y+1/4 '
	 'z-1/4, y+1/4, -x-1/4 '
	 'y, z, x '
	 'y, x, z '
	 'y+1/4, -x-1/4, z-1/4 '
	 'y+1/4, z-1/4, -x-1/4 '
	 'y+1/2, -x+1/2, -z '
	 'y+1/2, -z, -x+1/2 '
	 'y-1/4, -z-1/4, x+1/4 '
	 'y-1/4, x+1/4, -z-1/4 '
	 'x, z, y '
	 '-x, -y+1/2, z+1/2 '
	 'x+1/4, -z-1/4, y-1/4 '
	 'x+1/4, y-1/4, -z-1/4 '
	 'x+1/2, -y, -z+1/2 '
	 'x+1/2, -z+1/2, -y '
	 'x-1/4, -y-1/4, z+1/4 '
	 'x-1/4, z+1/4, -y-1/4 '
	 'x+1/2, y+1/2, z '
	 '-x+1/2, z, -y+1/2 '
	 '-x-1/4, -y-1/4, -z+1/4 '
	 '-x-1/4, -z-1/4, -y+1/4 '
	 '-x, -z+1/2, y+1/2 '
	 '-x, y, -z '
	 '-x+1/4, z+1/4, y+1/4 '
	 '-x+1/4, y-1/4, z-1/4 '
	 '-y+1/2, -z, x+1/2 '
	 '-y+1/2, x, -z+1/2 '
	 '-y-1/4, -x-1/4, -z+1/4 '
	 '-y-1/4, -z-1/4, -x+1/4 '
	 '-y, -x+1/2, z+1/2 '
	 '-y, z, -x '
	 '-y+1/4, z-1/4, x-1/4 '
	 '-y+1/4, x+1/4, z+1/4 '
	 '-z+1/2, -x, y+1/2 '
	 '-z+1/2, y, -x+1/2 '
	 '-z-1/4, -x-1/4, -y+1/4 '
	 '-z-1/4, -y-1/4, -x+1/4 '
	 '-z, -y+1/2, x+1/2 '
	 '-z, x, -y '
	 '-z+1/4, y+1/4, x+1/4 '
	 '-z+1/4, x-1/4, y-1/4 '
	 'z+1/2, y+1/2, x '
	 'z+1/2, x+1/2, y '
	 'z-1/4, -y+1/4, x-1/4 '
	 'z-1/4, x+1/4, -y-1/4 '
	 'z, -x+1/2, -y+1/2 '
	 'z, -y, -x '
	 'z+1/4, -x+1/4, y+1/4 '
	 'z+1/4, y-1/4, -x-1/4 '
	 'y+1/2, z+1/2, x '
	 'y+1/2, x+1/2, z '
	 'y-1/4, -x+1/4, z-1/4 '
	 'y-1/4, z+1/4, -x-1/4 '
	 'y, -x, -z '
	 'y, -z+1/2, -x+1/2 '
	 'y+1/4, -z+1/4, x+1/4 '
	 'y+1/4, x-1/4, -z-1/4 '
	 'x+1/2, z+1/2, y '
	 '-x+1/2, -y, z+1/2 '
	 'x-1/4, -z+1/4, y-1/4 '
	 'x-1/4, y+1/4, -z-1/4 '
	 'x, -y+1/2, -z+1/2 '
	 'x, -z, -y '
	 'x+1/4, -y+1/4, z+1/4 '
	 'x+1/4, z-1/4, -y-1/4 '
	 'x+1/2, y, z+1/2 '
	 '-x+1/2, z+1/2, -y '
	 '-x-1/4, -y+1/4, -z-1/4 '
	 '-x-1/4, -z+1/4, -y-1/4 '
	 '-x, -z, y '
	 '-x, y+1/2, -z+1/2 '
	 '-x+1/4, z-1/4, y-1/4 '
	 '-x+1/4, y+1/4, z+1/4 '
	 '-y+1/2, -z+1/2, x '
	 '-y+1/2, x+1/2, -z '
	 '-y-1/4, -x+1/4, -z-1/4 '
	 '-y-1/4, -z+1/4, -x-1/4 '
	 '-y, -x, z '
	 '-y, z+1/2, -x+1/2 '
	 '-y+1/4, z+1/4, x+1/4 '
	 '-y+1/4, x-1/4, z-1/4 '
	 '-z+1/2, -x+1/2, y '
	 '-z+1/2, y+1/2, -x '
	 '-z-1/4, -x+1/4, -y-1/4 '
	 '-z-1/4, -y+1/4, -x-1/4 '
	 '-z, -y, x '
	 '-z, x+1/2, -y+1/2 '
	 '-z+1/4, y-1/4, x-1/4 '
	 '-z+1/4, x+1/4, y+1/4 '
	 'z+1/2, y, x+1/2 '
	 'z+1/2, x, y+1/2 '
	 'z-1/4, -y-1/4, x+1/4 '
	 'z-1/4, x-1/4, -y+1/4 '
	 'z, -x, -y '
	 'z, -y+1/2, -x+1/2 '
	 'z+1/4, -x-1/4, y-1/4 '
	 'z+1/4, y+1/4, -x+1/4 '
	 'y+1/2, z, x+1/2 '
	 'y+1/2, x, z+1/2 '
	 'y-1/4, -x-1/4, z+1/4 '
	 'y-1/4, z-1/4, -x+1/4 '
	 'y, -x+1/2, -z+1/2 '
	 'y, -z, -x '
	 'y+1/4, -z-1/4, x-1/4 '
	 'y+1/4, x+1/4, -z+1/4 '
	 'x+1/2, z, y+1/2 '
	 '-x+1/2, -y+1/2, z '
	 'x-1/4, -z-1/4, y+1/4 '
	 'x-1/4, y-1/4, -z+1/4 '
	 'x, -y, -z '
	 'x, -z+1/2, -y+1/2 '
	 'x+1/4, -y-1/4, z-1/4 '
	 'x+1/4, z+1/4, -y+1/4 '
	 'x, y+1/2, z+1/2 '
	 '-x, z, -y '
	 '-x+1/4, -y-1/4, -z-1/4 '
	 '-x+1/4, -z-1/4, -y-1/4 '
	 '-x+1/2, -z+1/2, y '
	 '-x+1/2, y, -z+1/2 '
	 '-x-1/4, z+1/4, y-1/4 '
	 '-x-1/4, y-1/4, z+1/4 '
	 '-y, -z, x '
	 '-y, x, -z '
	 '-y+1/4, -x-1/4, -z-1/4 '
	 '-y+1/4, -z-1/4, -x-1/4 '
	 '-y+1/2, -x+1/2, z '
	 '-y+1/2, z, -x+1/2 '
	 '-y-1/4, z-1/4, x+1/4 '
	 '-y-1/4, x+1/4, z-1/4 '
	 '-z, -x, y '
	 '-z, y, -x '
	 '-z+1/4, -x-1/4, -y-1/4 '
	 '-z+1/4, -y-1/4, -x-1/4 '
	 '-z+1/2, -y+1/2, x '
	 '-z+1/2, x, -y+1/2 '
	 '-z-1/4, y+1/4, x-1/4 '
	 '-z-1/4, x-1/4, y+1/4 '
	 'z, y+1/2, x+1/2 '
	 'z, x+1/2, y+1/2 '
	 'z+1/4, -y+1/4, x+1/4 '
	 'z+1/4, x+1/4, -y+1/4 '
	 'z+1/2, -x+1/2, -y '
	 'z+1/2, -y, -x+1/2 '
	 'z-1/4, -x+1/4, y-1/4 '
	 'z-1/4, y-1/4, -x+1/4 '
	 'y, z+1/2, x+1/2 '
	 'y, x+1/2, z+1/2 '
	 'y+1/4, -x+1/4, z+1/4 '
	 'y+1/4, z+1/4, -x+1/4 '
	 'y+1/2, -x, -z+1/2 '
	 'y+1/2, -z+1/2, -x '
	 'y-1/4, -z+1/4, x-1/4 '
	 'y-1/4, x-1/4, -z+1/4 '
	 'x, z+1/2, y+1/2 '
	 '-x, -y, z '
	 'x+1/4, -z+1/4, y+1/4 '
	 'x+1/4, y+1/4, -z+1/4 '
	 'x+1/2, -y+1/2, -z '
	 'x+1/2, -z, -y+1/2 '
	 'x-1/4, -y+1/4, z-1/4 '
	 'x-1/4, z-1/4, -y+1/4 '
loop_
_atom_site_label
_atom_site_type_symbol
_atom_site_site_symmetry_multiplicity
_atom_site_fract_x
_atom_site_fract_y
_atom_site_fract_z
_atom_site_occupancy
_atom_site_B_iso_or_equiv
Si1 Si   8 0 0 0 1 1.683122

data_phase_Al2O3_28
_pd_block_id Al2O3_28
_pd_block_diffractogram_id pattern_28

_pd_phase_name Al2O3_28
_cell_length_a 4.789104
_cell_length_b 4.789104
_cell_length_c 13.08287
_cell_angle_alpha 90
_cell_angle_beta 90
_cell_angle_gamma 120
_cell_volume 259.8616
_symmetry_space_group_name_H-M R-3cH
loop_
	_symmetry_equiv_pos_as_xyz
	 'x, y, z '
	 '-x, -y, -z '
	 '-x+y, -x, z '
	 '-x+y, y, z+1/2 '
	 '-y, -x, z+1/2 '
	 '-y, x-y, z '
	 'y, -x+y, -z '
	 'y, x, -z+1/2 '
	 'x-y, -y, -z+1/2 '
	 'x-y, x, -z '
	 '-x, -x+y, -z+1/2 '
	 'x, x-y, z+1/2 '
	 'x-1/3, y+1/3, z+1/3 '
	 '-x-1/3, -y+1/3, -z+1/3 '
	 '-x+y-1/3, -x+1/3, z+1/3 '
	 '-x+y-1/3, y+1/3, z-1/6 '
	 '-y-1/3, -x+1/3, z-1/6 '
	 '-y-1/3, x-y+1/3, z+1/3 '
	 'y-1/3, -x+y+1/3, -z+1/3 '
	 'y-1/3, x+1/3, -z-1/6 '
	 'x-y-1/3, -y+1/3, -z-1/6 '
	 'x-y-1/3, x+1/3, -z+1/3 '
	 '-x-1/3, -x+y+1/3, -z-1/6 '
	 'x-1/3, x-y+1/3, z-1/6 '
	 'x+1/3, y-1/3, z-1/3 '
	 '-x+1/3, -y-1/3, -z-1/3 '
	 '-x+y+1/3, -x-1/3, z-1/3 '
	 '-x+y+1/3, y-1/3, z+1/6 '
	 '-y+1/3, -x-1/3, z+1/6 '
	 '-y+1/3, x-y-1/3, z-1/3 '
	 'y+1/3, -x+y-1/3, -z-1/3 '
	 'y+1/3, x-1/3, -z+1/6 '
	 'x-y+1/3, -y-1/3, -z+1/6 '
	 'x-y+1/3, x-1/3, -z-1/3 '
	 '-x+1/3, -x+y-1/3, -z+1/6 '
	 'x+1/3, x-y-1/3, z+1/6 '
loop_
_atom_site_label
_atom_site_type_symbol
_atom_site_site_symmetry_multiplicity
_atom_site_fract_x
_atom_site_fract_y
_atom_site_fract_z
_atom_site_occupancy
_atom_site_B_iso_or_equiv
Al1 Al+3  12 0 0 0.148 1 0.7966112
O1 O-2  18 0.306 0 0.25 1 0.7966112

data_phase_Si_28
_pd_block_id Si_28
_pd_block_diffractogram_id pattern_28

_pd_phase_name Si_28
_cell_length_a 5.448213
_cell_length_b 5.448213
_cell_length_c 5.448213
_cell_angle_alpha 90
_cell_angle_beta 90
_cell_angle_gamma 90
_cell_volume 161.7194
_symmetry_space_group_name_H-M Fd-3mS
loop_
	_symmetry_equiv_pos_as_xyz
	 'x, y, z '
	 '-x, z+1/2, -y+1/2 '
	 '-x+1/4, -y+1/4, -z+1/4 '
	 '-x+1/4, -z+1/4, -y+1/4 '
	 '-x+1/2, -z, y+1/2 '
	 '-x+1/2, y+1/2, -z '
	 '-x-1/4, z-1/4, y+1/4 '
	 '-x-1/4, y+1/4, z-1/4 '
	 '-y, -z+1/2, x+1/2 '
	 '-y, x+1/2, -z+1/2 '
	 '-y+1/4, -x+1/4, -z+1/4 '
	 '-y+1/4, -z+1/4, -x+1/4 '
	 '-y+1/2, -x, z+1/2 '
	 '-y+1/2, z+1/2, -x '
	 '-y-1/4, z+1/4, x-1/4 '
	 '-y-1/4, x-1/4, z+1/4 '
	 '-z, -x+1/2, y+1/2 '
	 '-z, y+1/2, -x+1/2 '
	 '-z+1/4, -x+1/4, -y+1/4 '
	 '-z+1/4, -y+1/4, -x+1/4 '
	 '-z+1/2, -y, x+1/2 '
	 '-z+1/2, x+1/2, -y '
	 '-z-1/4, y-1/4, x+1/4 '
	 '-z-1/4, x+1/4, y-1/4 '
	 'z, y, x '
	 'z, x, y '
	 'z+1/4, -y-1/4, x-1/4 '
	 'z+1/4, x-1/4, -y-1/4 '
	 'z+1/2, -x, -y+1/2 '
	 'z+1/2, -y+1/2, -x '
	 'z-1/4, -x-1/4, y+1/4 '
	 'z-1/4, y+1/4, -x-1/4 '
	 'y, z, x '
	 'y, x, z '
	 'y+1/4, -x-1/4, z-1/4 '
	 'y+1/4, z-1/4, -x-1/4 '
	 'y+1/2, -x+1/2, -z '
	 'y+1/2, -z, -x+1/2 '
	 'y-1/4, -z-1/4, x+1/4 '
	 'y-1/4, x+1/4, -z-1/4 '
	 'x, z, y '
	 '-x, -y+1/2, z+1/2 '
	 'x+1/4, -z-1/4, y-1/4 '
	 'x+1/4, y-1/4, -z-1/4 '
	 'x+1/2, -y, -z+1/2 '
	 'x+1/2, -z+1/2, -y '
	 'x-1/4, -y-1/4, z+1/4 '
	 'x-1/4, z+1/4, -y-1/4 '
	 'x+1/2, y+1/2, z '
	 '-x+1/2, z, -y+1/2 '
	 '-x-1/4, -y-1/4, -z+1/4 '
	 '-x-1/4, -z-1/4, -y+1/4 '
	 '-x, -z+1/2, y+1/2 '
	 '-x, y, -z '
	 '-x+1/4, z+1/4, y+1/4 '
	 '-x+1/4, y-1/4, z-1/4 '
	 '-y+1/2, -z, x+1/2 '
	 '-y+1/2, x, -z+1/2 '
	 '-y-1/4, -x-1/4, -z+1/4 '
	 '-y-1/4, -z-1/4, -x+1/4 '
	 '-y, -x+1/2, z+1/2 '
	 '-y, z, -x '
	 '-y+1/4, z-1/4, x-1/4 '
	 '-y+1/4, x+1/4, z+1/4 '
	 '-z+1/2, -x, y+1/2 '
	 '-z+1/2, y, -x+1/2 '
	 '-z-1/4, -x-1/4, -y+1/4 '
	 '-z-1/4, -y-1/4, -x+1/4 '
	 '-z, -y+1/2, x+1/2 '
	 '-z, x, -y '
	 '-z+1/4, y+1/4, x+1/4 '
	 '-z+1/4, x-1/4, y-1/4 '
	 'z+1/2, y+1/2, x '
	 'z+1/2, x+1/2, y '
	 'z-1/4, -y+1/4, x-1/4 '
	 'z-1/4, x+1/4, -y-1/4 '
	 'z, -x+1/2, -y+1/2 '
	 'z, -y, -x '
	 'z+1/4, -x+1/4, y+1/4 '
	 'z+1/4, y-1/4, -x-1/4 '
	 'y+1/2, z+1/2, x '
	 'y+1/2, x+1/2, z '
	 'y-1/4, -x+1/4, z-1/4 '
	 'y-1/4, z+1/4, -x-1/4 '
	 'y, -x, -z '
	 'y, -z+1/2, -x+1/2 '
	 'y+1/4, -z+1/4, x+1/4 '
	 'y+1/4, x-1/4, -z-1/4 '
	 'x+1/2, z+1/2, y '
	 '-x+1/2, -y, z+1/2 '
	 'x-1/4, -z+1/4, y-1/4 '
	 'x-1/4, y+1/4, -z-1/4 '
	 'x, -y+1/2, -z+1/2 '
	 'x, -z, -y '
	 'x+1/4, -y+1/4, z+1/4 '
	 'x+1/4, z-1/4, -y-1/4 '
	 'x+1/2, y, z+1/2 '
	 '-x+1/2, z+1/2, -y '
	 '-x-1/4, -y+1/4, -z-1/4 '
	 '-x-1/4, -z+1/4, -y-1/4 '
	 '-x, -z, y '
	 '-x, y+1/2, -z+1/2 '
	 '-x+1/4, z-1/4, y-1/4 '
	 '-x+1/4, y+1/4, z+1/4 '
	 '-y+1/2, -z+1/2, x '
	 '-y+1/2, x+1/2, -z '
	 '-y-1/4, -x+1/4, -z-1/4 '
	 '-y-1/4, -z+1/4, -x-1/4 '
	 '-y, -x, z '
	 '-y, z+1/2, -x+1/2 '
	 '-y+1/4, z+1/4, x+1/4 '
	 '-y+1/4, x-1/4, z-1/4 '
	 '-z+1/2, -x+1/2, y '
	 '-z+1/2, y+1/2, -x '
	 '-z-1/4, -x+1/4, -y-1/4 '
	 '-z-1/4, -y+1/4, -x-1/4 '
	 '-z, -y, x '
	 '-z, x+1/2, -y+1/2 '
	 '-z+1/4, y-1/4, x-1/4 '
	 '-z+1/4, x+1/4, y+1/4 '
	 'z+1/2, y, x+1/2 '
	 'z+1/2, x, y+1/2 '
	 'z-1/4, -y-1/4, x+1/4 '
	 'z-1/4, x-1/4, -y+1/4 '
	 'z, -x, -y '
	 'z, -y+1/2, -x+1/2 '
	 'z+1/4, -x-1/4, y-1/4 '
	 'z+1/4, y+1/4, -x+1/4 '
	 'y+1/2, z, x+1/2 '
	 'y+1/2, x, z+1/2 '
	 'y-1/4, -x-1/4, z+1/4 '
	 'y-1/4, z-1/4, -x+1/4 '
	 'y, -x+1/2, -z+1/2 '
	 'y, -z, -x '
	 'y+1/4, -z-1/4, x-1/4 '
	 'y+1/4, x+1/4, -z+1/4 '
	 'x+1/2, z, y+1/2 '
	 '-x+1/2, -y+1/2, z '
	 'x-1/4, -z-1/4, y+1/4 '
	 'x-1/4, y-1/4, -z+1/4 '
	 'x, -y, -z '
	 'x, -z+1/2, -y+1/2 '
	 'x+1/4, -y-1/4, z-1/4 '
	 'x+1/4, z+1/4, -y+1/4 '
	 'x, y+1/2, z+1/2 '
	 '-x, z, -y '
	 '-x+1/4, -y-1/4, -z-1/4 '
	 '-x+1/4, -z-1/4, -y-1/4 '
	 '-x+1/2, -z+1/2, y '
	 '-x+1/2, y, -z+1/2 '
	 '-x-1/4, z+1/4, y-1/4 '
	 '-x-1/4, y-1/4, z+1/4 '
	 '-y, -z, x '
	 '-y, x, -z '
	 '-y+1/4, -x-1/4, -z-1/4 '
	 '-y+1/4, -z-1/4, -x-1/4 '
	 '-y+1/2, -x+1/2, z '
	 '-y+1/2, z, -x+1/2 '
	 '-y-1/4, z-1/4, x+1/4 '
	 '-y-1/4, x+1/4, z-1/4 '
	 '-z, -x, y '
	 '-z, y, -x '
	 '-z+1/4, -x-1/4, -y-1/4 '
	 '-z+1/4, -y-1/4, -x-1/4 '
	 '-z+1/2, -y+1/2, x '
	 '-z+1/2, x, -y+1/2 '
	 '-z-1/4, y+1/4, x-1/4 '
	 '-z-1/4, x-1/4, y+1/4 '
	 'z, y+1/2, x+1/2 '
	 'z, x+1/2, y+1/2 '
	 'z+1/4, -y+1/4, x+1/4 '
	 'z+1/4, x+1/4, -y+1/4 '
	 'z+1/2, -x+1/2, -y '
	 'z+1/2, -y, -x+1/2 '
	 'z-1/4, -x+1/4, y-1/4 '
	 'z-1/4, y-1/4, -x+1/4 '
	 'y, z+1/2, x+1/2 '
	 'y, x+1/2, z+1/2 '
	 'y+1/4, -x+1/4, z+1/4 '
	 'y+1/4, z+1/4, -x+1/4 '
	 'y+1/2, -x, -z+1/2 '
	 'y+1/2, -z+1/2, -x '
	 'y-1/4, -z+1/4, x-1/4 '
	 'y-1/4, x-1/4, -z+1/4 '
	 'x, z+1/2, y+1/2 '
	 '-x, -y, z '
	 'x+1/4, -z+1/4, y+1/4 '
	 'x+1/4, y+1/4, -z+1/4 '
	 'x+1/2, -y+1/2, -z '
	 'x+1/2, -z, -y+1/2 '
	 'x-1/4, -y+1/4, z-1/4 '
	 'x-1/4, z-1/4, -y+1/4 '
loop_
_atom_site_label
_atom_site_type_symbol
_atom_site_site_symmetry_multiplicity
_atom_site_fract_x
_atom_site_fract_y
_atom_site_fract_z
_atom_site_occupancy
_atom_site_B_iso_or_equiv
Si1 Si   8 0 0 0 1 1.7737

data_phase_Al2O3_29
_pd_block_id Al2O3_29
_pd_block_diffractogram_id pattern_29

_pd_phase_name Al2O3_29
_cell_length_a 4.790802
_cell_length_b 4.790802
_cell_length_c 13.08816
_cell_angle_alpha 90
_cell_angle_beta 90
_cell_angle_gamma 120
_cell_volume 260.1512
_symmetry_space_group_name_H-M R-3cH
loop_
	_symmetry_equiv_pos_as_xyz
	 'x, y, z '
	 '-x, -y, -z '
	 '-x+y, -x, z '
	 '-x+y, y, z+1/2 '
	 '-y, -x, z+1/2 '
	 '-y, x-y, z '
	 'y, -x+y, -z '
	 'y, x, -z+1/2 '
	 'x-y, -y, -z+1/2 '
	 'x-y, x, -z '
	 '-x, -x+y, -z+1/2 '
	 'x, x-y, z+1/2 '
	 'x-1/3, y+1/3, z+1/3 '
	 '-x-1/3, -y+1/3, -z+1/3 '
	 '-x+y-1/3, -x+1/3, z+1/3 '
	 '-x+y-1/3, y+1/3, z-1/6 '
	 '-y-1/3, -x+1/3, z-1/6 '
	 '-y-1/3, x-y+1/3, z+1/3 '
	 'y-1/3, -x+y+1/3, -z+1/3 '
	 'y-1/3, x+1/3, -z-1/6 '
	 'x-y-1/3, -y+1/3, -z-1/6 '
	 'x-y-1/3, x+1/3, -z+1/3 '
	 '-x-1/3, -x+y+1/3, -z-1/6 '
	 'x-1/3, x-y+1/3, z-1/6 '
	 'x+1/3, y-1/3, z-1/3 '
	 '-x+1/3, -y-1/3, -z-1/3 '
	 '-x+y+1/3, -x-1/3, z-1/3 '
	 '-x+y+1/3, y-1/3, z+1/6 '
	 '-y+1/3, -x-1/3, z+1/6 '
	 '-y+1/3, x-y-1/3, z-1/3 '
	 'y+1/3, -x+y-1/3, -z-1/3 '
	 'y+1/3, x-1/3, -z+1/6 '
	 'x-y+1/3, -y-1/3, -z+1/6 '
	 'x-y+1/3, x-1/3, -z-1/3 '
	 '-x+1/3, -x+y-1/3, -z+1/6 '
	 'x+1/3, x-y-1/3, z+1/6 '
loop_
_atom_site_label
_atom_site_type_symbol
_atom_site_site_symmetry_multiplicity
_atom_site_fract_x
_atom_site_fract_y
_atom_site_fract_z
_atom_site_occupancy
_atom_site_B_iso_or_equiv
Al1 Al+3  12 0 0 0.148 1 0.8216955
O1 O-2  18 0.306 0 0.25 1 0.8216955

data_phase_Si_29
_pd_block_id Si_29
_pd_block_diffractogram_id pattern_29

_pd_phase_name Si_29
_cell_length_a 5.449194
_cell_length_b 5.449194
_cell_length_c 5.449194
_cell_angle_alpha 90
_cell_angle_beta 90
_cell_angle_gamma 90
_cell_volume 161.8068
_symmetry_space_group_name_H-M Fd-3mS
loop_
	_symmetry_equiv_pos_as_xyz
	 'x, y, z '
	 '-x, z+1/2, -y+1/2 '
	 '-x+1/4, -y+1/4, -z+1/4 '
	 '-x+1/4, -z+1/4, -y+1/4 '
	 '-x+1/2, -z, y+1/2 '
	 '-x+1/2, y+1/2, -z '
	 '-x-1/4, z-1/4, y+1/4 '
	 '-x-1/4, y+1/4, z-1/4 '
	 '-y, -z+1/2, x+1/2 '
	 '-y, x+1/2, -z+1/2 '
	 '-y+1/4, -x+1/4, -z+1/4 '
	 '-y+1/4, -z+1/4, -x+1/4 '
	 '-y+1/2, -x, z+1/2 '
	 '-y+1/2, z+1/2, -x '
	 '-y-1/4, z+1/4, x-1/4 '
	 '-y-1/4, x-1/4, z+1/4 '
	 '-z, -x+1/2, y+1/2 '
	 '-z, y+1/2, -x+1/2 '
	 '-z+1/4, -x+1/4, -y+1/4 '
	 '-z+1/4, -y+1/4, -x+1/4 '
	 '-z+1/2, -y, x+1/2 '
	 '-z+1/2, x+1/2, -y '
	 '-z-1/4, y-1/4, x+1/4 '
	 '-z-1/4, x+1/4, y-1/4 '
	 'z, y, x '
	 'z, x, y '
	 'z+1/4, -y-1/4, x-1/4 '
	 'z+1/4, x-1/4, -y-1/4 '
	 'z+1/2, -x, -y+1/2 '
	 'z+1/2, -y+1/2, -x '
	 'z-1/4, -x-1/4, y+1/4 '
	 'z-1/4, y+1/4, -x-1/4 '
	 'y, z, x '
	 'y, x, z '
	 'y+1/4, -x-1/4, z-1/4 '
	 'y+1/4, z-1/4, -x-1/4 '
	 'y+1/2, -x+1/2, -z '
	 'y+1/2, -z, -x+1/2 '
	 'y-1/4, -z-1/4, x+1/4 '
	 'y-1/4, x+1/4, -z-1/4 '
	 'x, z, y '
	 '-x, -y+1/2, z+1/2 '
	 'x+1/4, -z-1/4, y-1/4 '
	 'x+1/4, y-1/4, -z-1/4 '
	 'x+1/2, -y, -z+1/2 '
	 'x+1/2, -z+1/2, -y '
	 'x-1/4, -y-1/4, z+1/4 '
	 'x-1/4, z+1/4, -y-1/4 '
	 'x+1/2, y+1/2, z '
	 '-x+1/2, z, -y+1/2 '
	 '-x-1/4, -y-1/4, -z+1/4 '
	 '-x-1/4, -z-1/4, -y+1/4 '
	 '-x, -z+1/2, y+1/2 '
	 '-x, y, -z '
	 '-x+1/4, z+1/4, y+1/4 '
	 '-x+1/4, y-1/4, z-1/4 '
	 '-y+1/2, -z, x+1/2 '
	 '-y+1/2, x, -z+1/2 '
	 '-y-1/4, -x-1/4, -z+1/4 '
	 '-y-1/4, -z-1/4, -x+1/4 '
	 '-y, -x+1/2, z+1/2 '
	 '-y, z, -x '
	 '-y+1/4, z-1/4, x-1/4 '
	 '-y+1/4, x+1/4, z+1/4 '
	 '-z+1/2, -x, y+1/2 '
	 '-z+1/2, y, -x+1/2 '
	 '-z-1/4, -x-1/4, -y+1/4 '
	 '-z-1/4, -y-1/4, -x+1/4 '
	 '-z, -y+1/2, x+1/2 '
	 '-z, x, -y '
	 '-z+1/4, y+1/4, x+1/4 '
	 '-z+1/4, x-1/4, y-1/4 '
	 'z+1/2, y+1/2, x '
	 'z+1/2, x+1/2, y '
	 'z-1/4, -y+1/4, x-1/4 '
	 'z-1/4, x+1/4, -y-1/4 '
	 'z, -x+1/2, -y+1/2 '
	 'z, -y, -x '
	 'z+1/4, -x+1/4, y+1/4 '
	 'z+1/4, y-1/4, -x-1/4 '
	 'y+1/2, z+1/2, x '
	 'y+1/2, x+1/2, z '
	 'y-1/4, -x+1/4, z-1/4 '
	 'y-1/4, z+1/4, -x-1/4 '
	 'y, -x, -z '
	 'y, -z+1/2, -x+1/2 '
	 'y+1/4, -z+1/4, x+1/4 '
	 'y+1/4, x-1/4, -z-1/4 '
	 'x+1/2, z+1/2, y '
	 '-x+1/2, -y, z+1/2 '
	 'x-1/4, -z+1/4, y-1/4 '
	 'x-1/4, y+1/4, -z-1/4 '
	 'x, -y+1/2, -z+1/2 '
	 'x, -z, -y '
	 'x+1/4, -y+1/4, z+1/4 '
	 'x+1/4, z-1/4, -y-1/4 '
	 'x+1/2, y, z+1/2 '
	 '-x+1/2, z+1/2, -y '
	 '-x-1/4, -y+1/4, -z-1/4 '
	 '-x-1/4, -z+1/4, -y-1/4 '
	 '-x, -z, y '
	 '-x, y+1/2, -z+1/2 '
	 '-x+1/4, z-1/4, y-1/4 '
	 '-x+1/4, y+1/4, z+1/4 '
	 '-y+1/2, -z+1/2, x '
	 '-y+1/2, x+1/2, -z '
	 '-y-1/4, -x+1/4, -z-1/4 '
	 '-y-1/4, -z+1/4, -x-1/4 '
	 '-y, -x, z '
	 '-y, z+1/2, -x+1/2 '
	 '-y+1/4, z+1/4, x+1/4 '
	 '-y+1/4, x-1/4, z-1/4 '
	 '-z+1/2, -x+1/2, y '
	 '-z+1/2, y+1/2, -x '
	 '-z-1/4, -x+1/4, -y-1/4 '
	 '-z-1/4, -y+1/4, -x-1/4 '
	 '-z, -y, x '
	 '-z, x+1/2, -y+1/2 '
	 '-z+1/4, y-1/4, x-1/4 '
	 '-z+1/4, x+1/4, y+1/4 '
	 'z+1/2, y, x+1/2 '
	 'z+1/2, x, y+1/2 '
	 'z-1/4, -y-1/4, x+1/4 '
	 'z-1/4, x-1/4, -y+1/4 '
	 'z, -x, -y '
	 'z, -y+1/2, -x+1/2 '
	 'z+1/4, -x-1/4, y-1/4 '
	 'z+1/4, y+1/4, -x+1/4 '
	 'y+1/2, z, x+1/2 '
	 'y+1/2, x, z+1/2 '
	 'y-1/4, -x-1/4, z+1/4 '
	 'y-1/4, z-1/4, -x+1/4 '
	 'y, -x+1/2, -z+1/2 '
	 'y, -z, -x '
	 'y+1/4, -z-1/4, x-1/4 '
	 'y+1/4, x+1/4, -z+1/4 '
	 'x+1/2, z, y+1/2 '
	 '-x+1/2, -y+1/2, z '
	 'x-1/4, -z-1/4, y+1/4 '
	 'x-1/4, y-1/4, -z+1/4 '
	 'x, -y, -z '
	 'x, -z+1/2, -y+1/2 '
	 'x+1/4, -y-1/4, z-1/4 '
	 'x+1/4, z+1/4, -y+1/4 '
	 'x, y+1/2, z+1/2 '
	 '-x, z, -y '
	 '-x+1/4, -y-1/4, -z-1/4 '
	 '-x+1/4, -z-1/4, -y-1/4 '
	 '-x+1/2, -z+1/2, y '
	 '-x+1/2, y, -z+1/2 '
	 '-x-1/4, z+1/4, y-1/4 '
	 '-x-1/4, y-1/4, z+1/4 '
	 '-y, -z, x '
	 '-y, x, -z '
	 '-y+1/4, -x-1/4, -z-1/4 '
	 '-y+1/4, -z-1/4, -x-1/4 '
	 '-y+1/2, -x+1/2, z '
	 '-y+1/2, z, -x+1/2 '
	 '-y-1/4, z-1/4, x+1/4 '
	 '-y-1/4, x+1/4, z-1/4 '
	 '-z, -x, y '
	 '-z, y, -x '
	 '-z+1/4, -x-1/4, -y-1/4 '
	 '-z+1/4, -y-1/4, -x-1/4 '
	 '-z+1/2, -y+1/2, x '
	 '-z+1/2, x, -y+1/2 '
	 '-z-1/4, y+1/4, x-1/4 '
	 '-z-1/4, x-1/4, y+1/4 '
	 'z, y+1/2, x+1/2 '
	 'z, x+1/2, y+1/2 '
	 'z+1/4, -y+1/4, x+1/4 '
	 'z+1/4, x+1/4, -y+1/4 '
	 'z+1/2, -x+1/2, -y '
	 'z+1/2, -y, -x+1/2 '
	 'z-1/4, -x+1/4, y-1/4 '
	 'z-1/4, y-1/4, -x+1/4 '
	 'y, z+1/2, x+1/2 '
	 'y, x+1/2, z+1/2 '
	 'y+1/4, -x+1/4, z+1/4 '
	 'y+1/4, z+1/4, -x+1/4 '
	 'y+1/2, -x, -z+1/2 '
	 'y+1/2, -z+1/2, -x '
	 'y-1/4, -z+1/4, x-1/4 '
	 'y-1/4, x-1/4, -z+1/4 '
	 'x, z+1/2, y+1/2 '
	 '-x, -y, z '
	 'x+1/4, -z+1/4, y+1/4 '
	 'x+1/4, y+1/4, -z+1/4 '
	 'x+1/2, -y+1/2, -z '
	 'x+1/2, -z, -y+1/2 '
	 'x-1/4, -y+1/4, z-1/4 '
	 'x-1/4, z-1/4, -y+1/4 '
loop_
_atom_site_label
_atom_site_type_symbol
_atom_site_site_symmetry_multiplicity
_atom_site_fract_x
_atom_site_fract_y
_atom_site_fract_z
_atom_site_occupancy
_atom_site_B_iso_or_equiv
Si1 Si   8 0 0 0 1 1.88268

data_phase_Al2O3_0
_pd_block_id Al2O3_0
_pd_block_diffractogram_id pattern_0

_pd_phase_name Al2O3_0
_cell_length_a 4.759296
_cell_length_b 4.759296
_cell_length_c 12.99236
_cell_angle_alpha 90
_cell_angle_beta 90
_cell_angle_gamma 120
_cell_volume 254.8615
_symmetry_space_group_name_H-M R-3cH
loop_
	_symmetry_equiv_pos_as_xyz
	 'x, y, z '
	 '-x, -y, -z '
	 '-x+y, -x, z '
	 '-x+y, y, z+1/2 '
	 '-y, -x, z+1/2 '
	 '-y, x-y, z '
	 'y, -x+y, -z '
	 'y, x, -z+1/2 '
	 'x-y, -y, -z+1/2 '
	 'x-y, x, -z '
	 '-x, -x+y, -z+1/2 '
	 'x, x-y, z+1/2 '
	 'x-1/3, y+1/3, z+1/3 '
	 '-x-1/3, -y+1/3, -z+1/3 '
	 '-x+y-1/3, -x+1/3, z+1/3 '
	 '-x+y-1/3, y+1/3, z-1/6 '
	 '-y-1/3, -x+1/3, z-1/6 '
	 '-y-1/3, x-y+1/3, z+1/3 '
	 'y-1/3, -x+y+1/3, -z+1/3 '
	 'y-1/3, x+1/3, -z-1/6 '
	 'x-y-1/3, -y+1/3, -z-1/6 '
	 'x-y-1/3, x+1/3, -z+1/3 '
	 '-x-1/3, -x+y+1/3, -z-1/6 '
	 'x-1/3, x-y+1/3, z-1/6 '
	 'x+1/3, y-1/3, z-1/3 '
	 '-x+1/3, -y-1/3, -z-1/3 '
	 '-x+y+1/3, -x-1/3, z-1/3 '
	 '-x+y+1/3, y-1/3, z+1/6 '
	 '-y+1/3, -x-1/3, z+1/6 '
	 '-y+1/3, x-y-1/3, z-1/3 '
	 'y+1/3, -x+y-1/3, -z-1/3 '
	 'y+1/3, x-1/3, -z+1/6 '
	 'x-y+1/3, -y-1/3, -z+1/6 '
	 'x-y+1/3, x-1/3, -z-1/3 '
	 '-x+1/3, -x+y-1/3, -z+1/6 '
	 'x+1/3, x-y-1/3, z+1/6 '
loop_
_atom_site_label
_atom_site_type_symbol
_atom_site_site_symmetry_multiplicity
_atom_site_fract_x
_atom_site_fract_y
_atom_site_fract_z
_atom_site_occupancy
_atom_site_B_iso_or_equiv
Al1 Al+3  12 0 0 0.148 1 0.3635783
O1 O-2  18 0.306 0 0.25 1 0.3635783

data_phase_Si_0
_pd_block_id Si_0
_pd_block_diffractogram_id pattern_0

_pd_phase_name Si_0
_cell_length_a 5.431025
_cell_length_b 5.431025
_cell_length_c 5.431025
_cell_angle_alpha 90
_cell_angle_beta 90
_cell_angle_gamma 90
_cell_volume 160.1937
_symmetry_space_group_name_H-M Fd-3mS
loop_
	_symmetry_equiv_pos_as_xyz
	 'x, y, z '
	 '-x, z+1/2, -y+1/2 '
	 '-x+1/4, -y+1/4, -z+1/4 '
	 '-x+1/4, -z+1/4, -y+1/4 '
	 '-x+1/2, -z, y+1/2 '
	 '-x+1/2, y+1/2, -z '
	 '-x-1/4, z-1/4, y+1/4 '
	 '-x-1/4, y+1/4, z-1/4 '
	 '-y, -z+1/2, x+1/2 '
	 '-y, x+1/2, -z+1/2 '
	 '-y+1/4, -x+1/4, -z+1/4 '
	 '-y+1/4, -z+1/4, -x+1/4 '
	 '-y+1/2, -x, z+1/2 '
	 '-y+1/2, z+1/2, -x '
	 '-y-1/4, z+1/4, x-1/4 '
	 '-y-1/4, x-1/4, z+1/4 '
	 '-z, -x+1/2, y+1/2 '
	 '-z, y+1/2, -x+1/2 '
	 '-z+1/4, -x+1/4, -y+1/4 '
	 '-z+1/4, -y+1/4, -x+1/4 '
	 '-z+1/2, -y, x+1/2 '
	 '-z+1/2, x+1/2, -y '
	 '-z-1/4, y-1/4, x+1/4 '
	 '-z-1/4, x+1/4, y-1/4 '
	 'z, y, x '
	 'z, x, y '
	 'z+1/4, -y-1/4, x-1/4 '
	 'z+1/4, x-1/4, -y-1/4 '
	 'z+1/2, -x, -y+1/2 '
	 'z+1/2, -y+1/2, -x '
	 'z-1/4, -x-1/4, y+1/4 '
	 'z-1/4, y+1/4, -x-1/4 '
	 'y, z, x '
	 'y, x, z '
	 'y+1/4, -x-1/4, z-1/4 '
	 'y+1/4, z-1/4, -x-1/4 '
	 'y+1/2, -x+1/2, -z '
	 'y+1/2, -z, -x+1/2 '
	 'y-1/4, -z-1/4, x+1/4 '
	 'y-1/4, x+1/4, -z-1/4 '
	 'x, z, y '
	 '-x, -y+1/2, z+1/2 '
	 'x+1/4, -z-1/4, y-1/4 '
	 'x+1/4, y-1/4, -z-1/4 '
	 'x+1/2, -y, -z+1/2 '
	 'x+1/2, -z+1/2, -y '
	 'x-1/4, -y-1/4, z+1/4 '
	 'x-1/4, z+1/4, -y-1/4 '
	 'x+1/2, y+1/2, z '
	 '-x+1/2, z, -y+1/2 '
	 '-x-1/4, -y-1/4, -z+1/4 '
	 '-x-1/4, -z-1/4, -y+1/4 '
	 '-x, -z+1/2, y+1/2 '
	 '-x, y, -z '
	 '-x+1/4, z+1/4, y+1/4 '
	 '-x+1/4, y-1/4, z-1/4 '
	 '-y+1/2, -z, x+1/2 '
	 '-y+1/2, x, -z+1/2 '
	 '-y-1/4, -x-1/4, -z+1/4 '
	 '-y-1/4, -z-1/4, -x+1/4 '
	 '-y, -x+1/2, z+1/2 '
	 '-y, z, -x '
	 '-y+1/4, z-1/4, x-1/4 '
	 '-y+1/4, x+1/4, z+1/4 '
	 '-z+1/2, -x, y+1/2 '
	 '-z+1/2, y, -x+1/2 '
	 '-z-1/4, -x-1/4, -y+1/4 '
	 '-z-1/4, -y-1/4, -x+1/4 '
	 '-z, -y+1/2, x+1/2 '
	 '-z, x, -y '
	 '-z+1/4, y+1/4, x+1/4 '
	 '-z+1/4, x-1/4, y-1/4 '
	 'z+1/2, y+1/2, x '
	 'z+1/2, x+1/2, y '
	 'z-1/4, -y+1/4, x-1/4 '
	 'z-1/4, x+1/4, -y-1/4 '
	 'z, -x+1/2, -y+1/2 '
	 'z, -y, -x '
	 'z+1/4, -x+1/4, y+1/4 '
	 'z+1/4, y-1/4, -x-1/4 '
	 'y+1/2, z+1/2, x '
	 'y+1/2, x+1/2, z '
	 'y-1/4, -x+1/4, z-1/4 '
	 'y-1/4, z+1/4, -x-1/4 '
	 'y, -x, -z '
	 'y, -z+1/2, -x+1/2 '
	 'y+1/4, -z+1/4, x+1/4 '
	 'y+1/4, x-1/4, -z-1/4 '
	 'x+1/2, z+1/2, y '
	 '-x+1/2, -y, z+1/2 '
	 'x-1/4, -z+1/4, y-1/4 '
	 'x-1/4, y+1/4, -z-1/4 '
	 'x, -y+1/2, -z+1/2 '
	 'x, -z, -y '
	 'x+1/4, -y+1/4, z+1/4 '
	 'x+1/4, z-1/4, -y-1/4 '
	 'x+1/2, y, z+1/2 '
	 '-x+1/2, z+1/2, -y '
	 '-x-1/4, -y+1/4, -z-1/4 '
	 '-x-1/4, -z+1/4, -y-1/4 '
	 '-x, -z, y '
	 '-x, y+1/2, -z+1/2 '
	 '-x+1/4, z-1/4, y-1/4 '
	 '-x+1/4, y+1/4, z+1/4 '
	 '-y+1/2, -z+1/2, x '
	 '-y+1/2, x+1/2, -z '
	 '-y-1/4, -x+1/4, -z-1/4 '
	 '-y-1/4, -z+1/4, -x-1/4 '
	 '-y, -x, z '
	 '-y, z+1/2, -x+1/2 '
	 '-y+1/4, z+1/4, x+1/4 '
	 '-y+1/4, x-1/4, z-1/4 '
	 '-z+1/2, -x+1/2, y '
	 '-z+1/2, y+1/2, -x '
	 '-z-1/4, -x+1/4, -y-1/4 '
	 '-z-1/4, -y+1/4, -x-1/4 '
	 '-z, -y, x '
	 '-z, x+1/2, -y+1/2 '
	 '-z+1/4, y-1/4, x-1/4 '
	 '-z+1/4, x+1/4, y+1/4 '
	 'z+1/2, y, x+1/2 '
	 'z+1/2, x, y+1/2 '
	 'z-1/4, -y-1/4, x+1/4 '
	 'z-1/4, x-1/4, -y+1/4 '
	 'z, -x, -y '
	 'z, -y+1/2, -x+1/2 '
	 'z+1/4, -x-1/4, y-1/4 '
	 'z+1/4, y+1/4, -x+1/4 '
	 'y+1/2, z, x+1/2 '
	 'y+1/2, x, z+1/2 '
	 'y-1/4, -x-1/4, z+1/4 '
	 'y-1/4, z-1/4, -x+1/4 '
	 'y, -x+1/2, -z+1/2 '
	 'y, -z, -x '
	 'y+1/4, -z-1/4, x-1/4 '
	 'y+1/4, x+1/4, -z+1/4 '
	 'x+1/2, z, y+1/2 '
	 '-x+1/2, -y+1/2, z '
	 'x-1/4, -z-1/4, y+1/4 '
	 'x-1/4, y-1/4, -z+1/4 '
	 'x, -y, -z '
	 'x, -z+1/2, -y+1/2 '
	 'x+1/4, -y-1/4, z-1/4 '
	 'x+1/4, z+1/4, -y+1/4 '
	 'x, y+1/2, z+1/2 '
	 '-x, z, -y '
	 '-x+1/4, -y-1/4, -z-1/4 '
	 '-x+1/4, -z-1/4, -y-1/4 '
	 '-x+1/2, -z+1/2, y '
	 '-x+1/2, y, -z+1/2 '
	 '-x-1/4, z+1/4, y-1/4 '
	 '-x-1/4, y-1/4, z+1/4 '
	 '-y, -z, x '
	 '-y, x, -z '
	 '-y+1/4, -x-1/4, -z-1/4 '
	 '-y+1/4, -z-1/4, -x-1/4 '
	 '-y+1/2, -x+1/2, z '
	 '-y+1/2, z, -x+1/2 '
	 '-y-1/4, z-1/4, x+1/4 '
	 '-y-1/4, x+1/4, z-1/4 '
	 '-z, -x, y '
	 '-z, y, -x '
	 '-z+1/4, -x-1/4, -y-1/4 '
	 '-z+1/4, -y-1/4, -x-1/4 '
	 '-z+1/2, -y+1/2, x '
	 '-z+1/2, x, -y+1/2 '
	 '-z-1/4, y+1/4, x-1/4 '
	 '-z-1/4, x-1/4, y+1/4 '
	 'z, y+1/2, x+1/2 '
	 'z, x+1/2, y+1/2 '
	 'z+1/4, -y+1/4, x+1/4 '
	 'z+1/4, x+1/4, -y+1/4 '
	 'z+1/2, -x+1/2, -y '
	 'z+1/2, -y, -x+1/2 '
	 'z-1/4, -x+1/4, y-1/4 '
	 'z-1/4, y-1/4, -x+1/4 '
	 'y, z+1/2, x+1/2 '
	 'y, x+1/2, z+1/2 '
	 'y+1/4, -x+1/4, z+1/4 '
	 'y+1/4, z+1/4, -x+1/4 '
	 'y+1/2, -x, -z+1/2 '
	 'y+1/2, -z+1/2, -x '
	 'y-1/4, -z+1/4, x-1/4 '
	 'y-1/4, x-1/4, -z+1/4 '
	 'x, z+1/2, y+1/2 '
	 '-x, -y, z '
	 'x+1/4, -z+1/4, y+1/4 '
	 'x+1/4, y+1/4, -z+1/4 '
	 'x+1/2, -y+1/2, -z '
	 'x+1/2, -z, -y+1/2 '
	 'x-1/4, -y+1/4, z-1/4 '
	 'x-1/4, z-1/4, -y+1/4 '
loop_
_atom_site_label
_atom_site_type_symbol
_atom_site_site_symmetry_multiplicity
_atom_site_fract_x
_atom_site_fract_y
_atom_site_fract_z
_atom_site_occupancy
_atom_site_B_iso_or_equiv
Si1 Si   8 0 0 0 1 0.3872329

data_phase_Al2O3_0
_pd_block_id Al2O3_0
_pd_block_diffractogram_id pattern_0

_pd_phase_name Al2O3_0
_cell_length_a 4.759289
_cell_length_b 4.759289
_cell_length_c 12.99234
_cell_angle_alpha 90
_cell_angle_beta 90
_cell_angle_gamma 120
_cell_volume 254.8604
_symmetry_space_group_name_H-M R-3cH
loop_
	_symmetry_equiv_pos_as_xyz
	 'x, y, z '
	 '-x, -y, -z '
	 '-x+y, -x, z '
	 '-x+y, y, z+1/2 '
	 '-y, -x, z+1/2 '
	 '-y, x-y, z '
	 'y, -x+y, -z '
	 'y, x, -z+1/2 '
	 'x-y, -y, -z+1/2 '
	 'x-y, x, -z '
	 '-x, -x+y, -z+1/2 '
	 'x, x-y, z+1/2 '
	 'x-1/3, y+1/3, z+1/3 '
	 '-x-1/3, -y+1/3, -z+1/3 '
	 '-x+y-1/3, -x+1/3, z+1/3 '
	 '-x+y-1/3, y+1/3, z-1/6 '
	 '-y-1/3, -x+1/3, z-1/6 '
	 '-y-1/3, x-y+1/3, z+1/3 '
	 'y-1/3, -x+y+1/3, -z+1/3 '
	 'y-1/3, x+1/3, -z-1/6 '
	 'x-y-1/3, -y+1/3, -z-1/6 '
	 'x-y-1/3, x+1/3, -z+1/3 '
	 '-x-1/3, -x+y+1/3, -z-1/6 '
	 'x-1/3, x-y+1/3, z-1/6 '
	 'x+1/3, y-1/3, z-1/3 '
	 '-x+1/3, -y-1/3, -z-1/3 '
	 '-x+y+1/3, -x-1/3, z-1/3 '
	 '-x+y+1/3, y-1/3, z+1/6 '
	 '-y+1/3, -x-1/3, z+1/6 '
	 '-y+1/3, x-y-1/3, z-1/3 '
	 'y+1/3, -x+y-1/3, -z-1/3 '
	 'y+1/3, x-1/3, -z+1/6 '
	 'x-y+1/3, -y-1/3, -z+1/6 '
	 'x-y+1/3, x-1/3, -z-1/3 '
	 '-x+1/3, -x+y-1/3, -z+1/6 '
	 'x+1/3, x-y-1/3, z+1/6 '
loop_
_atom_site_label
_atom_site_type_symbol
_atom_site_site_symmetry_multiplicity
_atom_site_fract_x
_atom_site_fract_y
_atom_site_fract_z
_atom_site_occupancy
_atom_site_B_iso_or_equiv
Al1 Al+3  12 0 0 0.148 1 0.3499204
O1 O-2  18 0.306 0 0.25 1 0.3499204

data_phase_Si_0
_pd_block_id Si_0
_pd_block_diffractogram_id pattern_0

_pd_phase_name Si_0
_cell_length_a 5.431023
_cell_length_b 5.431023
_cell_length_c 5.431023
_cell_angle_alpha 90
_cell_angle_beta 90
_cell_angle_gamma 90
_cell_volume 160.1935
_symmetry_space_group_name_H-M Fd-3mS
loop_
	_symmetry_equiv_pos_as_xyz
	 'x, y, z '
	 '-x, z+1/2, -y+1/2 '
	 '-x+1/4, -y+1/4, -z+1/4 '
	 '-x+1/4, -z+1/4, -y+1/4 '
	 '-x+1/2, -z, y+1/2 '
	 '-x+1/2, y+1/2, -z '
	 '-x-1/4, z-1/4, y+1/4 '
	 '-x-1/4, y+1/4, z-1/4 '
	 '-y, -z+1/2, x+1/2 '
	 '-y, x+1/2, -z+1/2 '
	 '-y+1/4, -x+1/4, -z+1/4 '
	 '-y+1/4, -z+1/4, -x+1/4 '
	 '-y+1/2, -x, z+1/2 '
	 '-y+1/2, z+1/2, -x '
	 '-y-1/4, z+1/4, x-1/4 '
	 '-y-1/4, x-1/4, z+1/4 '
	 '-z, -x+1/2, y+1/2 '
	 '-z, y+1/2, -x+1/2 '
	 '-z+1/4, -x+1/4, -y+1/4 '
	 '-z+1/4, -y+1/4, -x+1/4 '
	 '-z+1/2, -y, x+1/2 '
	 '-z+1/2, x+1/2, -y '
	 '-z-1/4, y-1/4, x+1/4 '
	 '-z-1/4, x+1/4, y-1/4 '
	 'z, y, x '
	 'z, x, y '
	 'z+1/4, -y-1/4, x-1/4 '
	 'z+1/4, x-1/4, -y-1/4 '
	 'z+1/2, -x, -y+1/2 '
	 'z+1/2, -y+1/2, -x '
	 'z-1/4, -x-1/4, y+1/4 '
	 'z-1/4, y+1/4, -x-1/4 '
	 'y, z, x '
	 'y, x, z '
	 'y+1/4, -x-1/4, z-1/4 '
	 'y+1/4, z-1/4, -x-1/4 '
	 'y+1/2, -x+1/2, -z '
	 'y+1/2, -z, -x+1/2 '
	 'y-1/4, -z-1/4, x+1/4 '
	 'y-1/4, x+1/4, -z-1/4 '
	 'x, z, y '
	 '-x, -y+1/2, z+1/2 '
	 'x+1/4, -z-1/4, y-1/4 '
	 'x+1/4, y-1/4, -z-1/4 '
	 'x+1/2, -y, -z+1/2 '
	 'x+1/2, -z+1/2, -y '
	 'x-1/4, -y-1/4, z+1/4 '
	 'x-1/4, z+1/4, -y-1/4 '
	 'x+1/2, y+1/2, z '
	 '-x+1/2, z, -y+1/2 '
	 '-x-1/4, -y-1/4, -z+1/4 '
	 '-x-1/4, -z-1/4, -y+1/4 '
	 '-x, -z+1/2, y+1/2 '
	 '-x, y, -z '
	 '-x+1/4, z+1/4, y+1/4 '
	 '-x+1/4, y-1/4, z-1/4 '
	 '-y+1/2, -z, x+1/2 '
	 '-y+1/2, x, -z+1/2 '
	 '-y-1/4, -x-1/4, -z+1/4 '
	 '-y-1/4, -z-1/4, -x+1/4 '
	 '-y, -x+1/2, z+1/2 '
	 '-y, z, -x '
	 '-y+1/4, z-1/4, x-1/4 '
	 '-y+1/4, x+1/4, z+1/4 '
	 '-z+1/2, -x, y+1/2 '
	 '-z+1/2, y, -x+1/2 '
	 '-z-1/4, -x-1/4, -y+1/4 '
	 '-z-1/4, -y-1/4, -x+1/4 '
	 '-z, -y+1/2, x+1/2 '
	 '-z, x, -y '
	 '-z+1/4, y+1/4, x+1/4 '
	 '-z+1/4, x-1/4, y-1/4 '
	 'z+1/2, y+1/2, x '
	 'z+1/2, x+1/2, y '
	 'z-1/4, -y+1/4, x-1/4 '
	 'z-1/4, x+1/4, -y-1/4 '
	 'z, -x+1/2, -y+1/2 '
	 'z, -y, -x '
	 'z+1/4, -x+1/4, y+1/4 '
	 'z+1/4, y-1/4, -x-1/4 '
	 'y+1/2, z+1/2, x '
	 'y+1/2, x+1/2, z '
	 'y-1/4, -x+1/4, z-1/4 '
	 'y-1/4, z+1/4, -x-1/4 '
	 'y, -x, -z '
	 'y, -z+1/2, -x+1/2 '
	 'y+1/4, -z+1/4, x+1/4 '
	 'y+1/4, x-1/4, -z-1/4 '
	 'x+1/2, z+1/2, y '
	 '-x+1/2, -y, z+1/2 '
	 'x-1/4, -z+1/4, y-1/4 '
	 'x-1/4, y+1/4, -z-1/4 '
	 'x, -y+1/2, -z+1/2 '
	 'x, -z, -y '
	 'x+1/4, -y+1/4, z+1/4 '
	 'x+1/4, z-1/4, -y-1/4 '
	 'x+1/2, y, z+1/2 '
	 '-x+1/2, z+1/2, -y '
	 '-x-1/4, -y+1/4, -z-1/4 '
	 '-x-1/4, -z+1/4, -y-1/4 '
	 '-x, -z, y '
	 '-x, y+1/2, -z+1/2 '
	 '-x+1/4, z-1/4, y-1/4 '
	 '-x+1/4, y+1/4, z+1/4 '
	 '-y+1/2, -z+1/2, x '
	 '-y+1/2, x+1/2, -z '
	 '-y-1/4, -x+1/4, -z-1/4 '
	 '-y-1/4, -z+1/4, -x-1/4 '
	 '-y, -x, z '
	 '-y, z+1/2, -x+1/2 '
	 '-y+1/4, z+1/4, x+1/4 '
	 '-y+1/4, x-1/4, z-1/4 '
	 '-z+1/2, -x+1/2, y '
	 '-z+1/2, y+1/2, -x '
	 '-z-1/4, -x+1/4, -y-1/4 '
	 '-z-1/4, -y+1/4, -x-1/4 '
	 '-z, -y, x '
	 '-z, x+1/2, -y+1/2 '
	 '-z+1/4, y-1/4, x-1/4 '
	 '-z+1/4, x+1/4, y+1/4 '
	 'z+1/2, y, x+1/2 '
	 'z+1/2, x, y+1/2 '
	 'z-1/4, -y-1/4, x+1/4 '
	 'z-1/4, x-1/4, -y+1/4 '
	 'z, -x, -y '
	 'z, -y+1/2, -x+1/2 '
	 'z+1/4, -x-1/4, y-1/4 '
	 'z+1/4, y+1/4, -x+1/4 '
	 'y+1/2, z, x+1/2 '
	 'y+1/2, x, z+1/2 '
	 'y-1/4, -x-1/4, z+1/4 '
	 'y-1/4, z-1/4, -x+1/4 '
	 'y, -x+1/2, -z+1/2 '
	 'y, -z, -x '
	 'y+1/4, -z-1/4, x-1/4 '
	 'y+1/4, x+1/4, -z+1/4 '
	 'x+1/2, z, y+1/2 '
	 '-x+1/2, -y+1/2, z '
	 'x-1/4, -z-1/4, y+1/4 '
	 'x-1/4, y-1/4, -z+1/4 '
	 'x, -y, -z '
	 'x, -z+1/2, -y+1/2 '
	 'x+1/4, -y-1/4, z-1/4 '
	 'x+1/4, z+1/4, -y+1/4 '
	 'x, y+1/2, z+1/2 '
	 '-x, z, -y '
	 '-x+1/4, -y-1/4, -z-1/4 '
	 '-x+1/4, -z-1/4, -y-1/4 '
	 '-x+1/2, -z+1/2, y '
	 '-x+1/2, y, -z+1/2 '
	 '-x-1/4, z+1/4, y-1/4 '
	 '-x-1/4, y-1/4, z+1/4 '
	 '-y, -z, x '
	 '-y, x, -z '
	 '-y+1/4, -x-1/4, -z-1/4 '
	 '-y+1/4, -z-1/4, -x-1/4 '
	 '-y+1/2, -x+1/2, z '
	 '-y+1/2, z, -x+1/2 '
	 '-y-1/4, z-1/4, x+1/4 '
	 '-y-1/4, x+1/4, z-1/4 '
	 '-z, -x, y '
	 '-z, y, -x '
	 '-z+1/4, -x-1/4, -y-1/4 '
	 '-z+1/4, -y-1/4, -x-1/4 '
	 '-z+1/2, -y+1/2, x '
	 '-z+1/2, x, -y+1/2 '
	 '-z-1/4, y+1/4, x-1/4 '
	 '-z-1/4, x-1/4, y+1/4 '
	 'z, y+1/2, x+1/2 '
	 'z, x+1/2, y+1/2 '
	 'z+1/4, -y+1/4, x+1/4 '
	 'z+1/4, x+1/4, -y+1/4 '
	 'z+1/2, -x+1/2, -y '
	 'z+1/2, -y, -x+1/2 '
	 'z-1/4, -x+1/4, y-1/4 '
	 'z-1/4, y-1/4, -x+1/4 '
	 'y, z+1/2, x+1/2 '
	 'y, x+1/2, z+1/2 '
	 'y+1/4, -x+1/4, z+1/4 '
	 'y+1/4, z+1/4, -x+1/4 '
	 'y+1/2, -x, -z+1/2 '
	 'y+1/2, -z+1/2, -x '
	 'y-1/4, -z+1/4, x-1/4 '
	 'y-1/4, x-1/4, -z+1/4 '
	 'x, z+1/2, y+1/2 '
	 '-x, -y, z '
	 'x+1/4, -z+1/4, y+1/4 '
	 'x+1/4, y+1/4, -z+1/4 '
	 'x+1/2, -y+1/2, -z '
	 'x+1/2, -z, -y+1/2 '
	 'x-1/4, -y+1/4, z-1/4 '
	 'x-1/4, z-1/4, -y+1/4 '
loop_
_atom_site_label
_atom_site_type_symbol
_atom_site_site_symmetry_multiplicity
_atom_site_fract_x
_atom_site_fract_y
_atom_site_fract_z
_atom_site_occupancy
_atom_site_B_iso_or_equiv
Si1 Si   8 0 0 0 1 0.3802966

data_phase_Al2O3_1
_pd_block_id Al2O3_1
_pd_block_diffractogram_id pattern_1

_pd_phase_name Al2O3_1
_cell_length_a 4.759804
_cell_length_b 4.759804
_cell_length_c 12.99404
_cell_angle_alpha 90
_cell_angle_beta 90
_cell_angle_gamma 120
_cell_volume 254.9488
_symmetry_space_group_name_H-M R-3cH
loop_
	_symmetry_equiv_pos_as_xyz
	 'x, y, z '
	 '-x, -y, -z '
	 '-x+y, -x, z '
	 '-x+y, y, z+1/2 '
	 '-y, -x, z+1/2 '
	 '-y, x-y, z '
	 'y, -x+y, -z '
	 'y, x, -z+1/2 '
	 'x-y, -y, -z+1/2 '
	 'x-y, x, -z '
	 '-x, -x+y, -z+1/2 '
	 'x, x-y, z+1/2 '
	 'x-1/3, y+1/3, z+1/3 '
	 '-x-1/3, -y+1/3, -z+1/3 '
	 '-x+y-1/3, -x+1/3, z+1/3 '
	 '-x+y-1/3, y+1/3, z-1/6 '
	 '-y-1/3, -x+1/3, z-1/6 '
	 '-y-1/3, x-y+1/3, z+1/3 '
	 'y-1/3, -x+y+1/3, -z+1/3 '
	 'y-1/3, x+1/3, -z-1/6 '
	 'x-y-1/3, -y+1/3, -z-1/6 '
	 'x-y-1/3, x+1/3, -z+1/3 '
	 '-x-1/3, -x+y+1/3, -z-1/6 '
	 'x-1/3, x-y+1/3, z-1/6 '
	 'x+1/3, y-1/3, z-1/3 '
	 '-x+1/3, -y-1/3, -z-1/3 '
	 '-x+y+1/3, -x-1/3, z-1/3 '
	 '-x+y+1/3, y-1/3, z+1/6 '
	 '-y+1/3, -x-1/3, z+1/6 '
	 '-y+1/3, x-y-1/3, z-1/3 '
	 'y+1/3, -x+y-1/3, -z-1/3 '
	 'y+1/3, x-1/3, -z+1/6 '
	 'x-y+1/3, -y-1/3, -z+1/6 '
	 'x-y+1/3, x-1/3, -z-1/3 '
	 '-x+1/3, -x+y-1/3, -z+1/6 '
	 'x+1/3, x-y-1/3, z+1/6 '
loop_
_atom_site_label
_atom_site_type_symbol
_atom_site_site_symmetry_multiplicity
_atom_site_fract_x
_atom_site_fract_y
_atom_site_fract_z
_atom_site_occupancy
_atom_site_B_iso_or_equiv
Al1 Al+3  12 0 0 0.148 1 0.3492905
O1 O-2  18 0.306 0 0.25 1 0.3492905

data_phase_Si_1
_pd_block_id Si_1
_pd_block_diffractogram_id pattern_1

_pd_phase_name Si_1
_cell_length_a 5.431347
_cell_length_b 5.431347
_cell_length_c 5.431347
_cell_angle_alpha 90
_cell_angle_beta 90
_cell_angle_gamma 90
_cell_volume 160.2222
_symmetry_space_group_name_H-M Fd-3mS
loop_
	_symmetry_equiv_pos_as_xyz
	 'x, y, z '
	 '-x, z+1/2, -y+1/2 '
	 '-x+1/4, -y+1/4, -z+1/4 '
	 '-x+1/4, -z+1/4, -y+1/4 '
	 '-x+1/2, -z, y+1/2 '
	 '-x+1/2, y+1/2, -z '
	 '-x-1/4, z-1/4, y+1/4 '
	 '-x-1/4, y+1/4, z-1/4 '
	 '-y, -z+1/2, x+1/2 '
	 '-y, x+1/2, -z+1/2 '
	 '-y+1/4, -x+1/4, -z+1/4 '
	 '-y+1/4, -z+1/4, -x+1/4 '
	 '-y+1/2, -x, z+1/2 '
	 '-y+1/2, z+1/2, -x '
	 '-y-1/4, z+1/4, x-1/4 '
	 '-y-1/4, x-1/4, z+1/4 '
	 '-z, -x+1/2, y+1/2 '
	 '-z, y+1/2, -x+1/2 '
	 '-z+1/4, -x+1/4, -y+1/4 '
	 '-z+1/4, -y+1/4, -x+1/4 '
	 '-z+1/2, -y, x+1/2 '
	 '-z+1/2, x+1/2, -y '
	 '-z-1/4, y-1/4, x+1/4 '
	 '-z-1/4, x+1/4, y-1/4 '
	 'z, y, x '
	 'z, x, y '
	 'z+1/4, -y-1/4, x-1/4 '
	 'z+1/4, x-1/4, -y-1/4 '
	 'z+1/2, -x, -y+1/2 '
	 'z+1/2, -y+1/2, -x '
	 'z-1/4, -x-1/4, y+1/4 '
	 'z-1/4, y+1/4, -x-1/4 '
	 'y, z, x '
	 'y, x, z '
	 'y+1/4, -x-1/4, z-1/4 '
	 'y+1/4, z-1/4, -x-1/4 '
	 'y+1/2, -x+1/2, -z '
	 'y+1/2, -z, -x+1/2 '
	 'y-1/4, -z-1/4, x+1/4 '
	 'y-1/4, x+1/4, -z-1/4 '
	 'x, z, y '
	 '-x, -y+1/2, z+1/2 '
	 'x+1/4, -z-1/4, y-1/4 '
	 'x+1/4, y-1/4, -z-1/4 '
	 'x+1/2, -y, -z+1/2 '
	 'x+1/2, -z+1/2, -y '
	 'x-1/4, -y-1/4, z+1/4 '
	 'x-1/4, z+1/4, -y-1/4 '
	 'x+1/2, y+1/2, z '
	 '-x+1/2, z, -y+1/2 '
	 '-x-1/4, -y-1/4, -z+1/4 '
	 '-x-1/4, -z-1/4, -y+1/4 '
	 '-x, -z+1/2, y+1/2 '
	 '-x, y, -z '
	 '-x+1/4, z+1/4, y+1/4 '
	 '-x+1/4, y-1/4, z-1/4 '
	 '-y+1/2, -z, x+1/2 '
	 '-y+1/2, x, -z+1/2 '
	 '-y-1/4, -x-1/4, -z+1/4 '
	 '-y-1/4, -z-1/4, -x+1/4 '
	 '-y, -x+1/2, z+1/2 '
	 '-y, z, -x '
	 '-y+1/4, z-1/4, x-1/4 '
	 '-y+1/4, x+1/4, z+1/4 '
	 '-z+1/2, -x, y+1/2 '
	 '-z+1/2, y, -x+1/2 '
	 '-z-1/4, -x-1/4, -y+1/4 '
	 '-z-1/4, -y-1/4, -x+1/4 '
	 '-z, -y+1/2, x+1/2 '
	 '-z, x, -y '
	 '-z+1/4, y+1/4, x+1/4 '
	 '-z+1/4, x-1/4, y-1/4 '
	 'z+1/2, y+1/2, x '
	 'z+1/2, x+1/2, y '
	 'z-1/4, -y+1/4, x-1/4 '
	 'z-1/4, x+1/4, -y-1/4 '
	 'z, -x+1/2, -y+1/2 '
	 'z, -y, -x '
	 'z+1/4, -x+1/4, y+1/4 '
	 'z+1/4, y-1/4, -x-1/4 '
	 'y+1/2, z+1/2, x '
	 'y+1/2, x+1/2, z '
	 'y-1/4, -x+1/4, z-1/4 '
	 'y-1/4, z+1/4, -x-1/4 '
	 'y, -x, -z '
	 'y, -z+1/2, -x+1/2 '
	 'y+1/4, -z+1/4, x+1/4 '
	 'y+1/4, x-1/4, -z-1/4 '
	 'x+1/2, z+1/2, y '
	 '-x+1/2, -y, z+1/2 '
	 'x-1/4, -z+1/4, y-1/4 '
	 'x-1/4, y+1/4, -z-1/4 '
	 'x, -y+1/2, -z+1/2 '
	 'x, -z, -y '
	 'x+1/4, -y+1/4, z+1/4 '
	 'x+1/4, z-1/4, -y-1/4 '
	 'x+1/2, y, z+1/2 '
	 '-x+1/2, z+1/2, -y '
	 '-x-1/4, -y+1/4, -z-1/4 '
	 '-x-1/4, -z+1/4, -y-1/4 '
	 '-x, -z, y '
	 '-x, y+1/2, -z+1/2 '
	 '-x+1/4, z-1/4, y-1/4 '
	 '-x+1/4, y+1/4, z+1/4 '
	 '-y+1/2, -z+1/2, x '
	 '-y+1/2, x+1/2, -z '
	 '-y-1/4, -x+1/4, -z-1/4 '
	 '-y-1/4, -z+1/4, -x-1/4 '
	 '-y, -x, z '
	 '-y, z+1/2, -x+1/2 '
	 '-y+1/4, z+1/4, x+1/4 '
	 '-y+1/4, x-1/4, z-1/4 '
	 '-z+1/2, -x+1/2, y '
	 '-z+1/2, y+1/2, -x '
	 '-z-1/4, -x+1/4, -y-1/4 '
	 '-z-1/4, -y+1/4, -x-1/4 '
	 '-z, -y, x '
	 '-z, x+1/2, -y+1/2 '
	 '-z+1/4, y-1/4, x-1/4 '
	 '-z+1/4, x+1/4, y+1/4 '
	 'z+1/2, y, x+1/2 '
	 'z+1/2, x, y+1/2 '
	 'z-1/4, -y-1/4, x+1/4 '
	 'z-1/4, x-1/4, -y+1/4 '
	 'z, -x, -y '
	 'z, -y+1/2, -x+1/2 '
	 'z+1/4, -x-1/4, y-1/4 '
	 'z+1/4, y+1/4, -x+1/4 '
	 'y+1/2, z, x+1/2 '
	 'y+1/2, x, z+1/2 '
	 'y-1/4, -x-1/4, z+1/4 '
	 'y-1/4, z-1/4, -x+1/4 '
	 'y, -x+1/2, -z+1/2 '
	 'y, -z, -x '
	 'y+1/4, -z-1/4, x-1/4 '
	 'y+1/4, x+1/4, -z+1/4 '
	 'x+1/2, z, y+1/2 '
	 '-x+1/2, -y+1/2, z '
	 'x-1/4, -z-1/4, y+1/4 '
	 'x-1/4, y-1/4, -z+1/4 '
	 'x, -y, -z '
	 'x, -z+1/2, -y+1/2 '
	 'x+1/4, -y-1/4, z-1/4 '
	 'x+1/4, z+1/4, -y+1/4 '
	 'x, y+1/2, z+1/2 '
	 '-x, z, -y '
	 '-x+1/4, -y-1/4, -z-1/4 '
	 '-x+1/4, -z-1/4, -y-1/4 '
	 '-x+1/2, -z+1/2, y '
	 '-x+1/2, y, -z+1/2 '
	 '-x-1/4, z+1/4, y-1/4 '
	 '-x-1/4, y-1/4, z+1/4 '
	 '-y, -z, x '
	 '-y, x, -z '
	 '-y+1/4, -x-1/4, -z-1/4 '
	 '-y+1/4, -z-1/4, -x-1/4 '
	 '-y+1/2, -x+1/2, z '
	 '-y+1/2, z, -x+1/2 '
	 '-y-1/4, z-1/4, x+1/4 '
	 '-y-1/4, x+1/4, z-1/4 '
	 '-z, -x, y '
	 '-z, y, -x '
	 '-z+1/4, -x-1/4, -y-1/4 '
	 '-z+1/4, -y-1/4, -x-1/4 '
	 '-z+1/2, -y+1/2, x '
	 '-z+1/2, x, -y+1/2 '
	 '-z-1/4, y+1/4, x-1/4 '
	 '-z-1/4, x-1/4, y+1/4 '
	 'z, y+1/2, x+1/2 '
	 'z, x+1/2, y+1/2 '
	 'z+1/4, -y+1/4, x+1/4 '
	 'z+1/4, x+1/4, -y+1/4 '
	 'z+1/2, -x+1/2, -y '
	 'z+1/2, -y, -x+1/2 '
	 'z-1/4, -x+1/4, y-1/4 '
	 'z-1/4, y-1/4, -x+1/4 '
	 'y, z+1/2, x+1/2 '
	 'y, x+1/2, z+1/2 '
	 'y+1/4, -x+1/4, z+1/4 '
	 'y+1/4, z+1/4, -x+1/4 '
	 'y+1/2, -x, -z+1/2 '
	 'y+1/2, -z+1/2, -x '
	 'y-1/4, -z+1/4, x-1/4 '
	 'y-1/4, x-1/4, -z+1/4 '
	 'x, z+1/2, y+1/2 '
	 '-x, -y, z '
	 'x+1/4, -z+1/4, y+1/4 '
	 'x+1/4, y+1/4, -z+1/4 '
	 'x+1/2, -y+1/2, -z '
	 'x+1/2, -z, -y+1/2 '
	 'x-1/4, -y+1/4, z-1/4 '
	 'x-1/4, z-1/4, -y+1/4 '
loop_
_atom_site_label
_atom_site_type_symbol
_atom_site_site_symmetry_multiplicity
_atom_site_fract_x
_atom_site_fract_y
_atom_site_fract_z
_atom_site_occupancy
_atom_site_B_iso_or_equiv
Si1 Si   8 0 0 0 1 0.4080058

data_phase_Al2O3_2
_pd_block_id Al2O3_2
_pd_block_diffractogram_id pattern_2

_pd_phase_name Al2O3_2
_cell_length_a 4.760329
_cell_length_b 4.760329
_cell_length_c 12.99566
_cell_angle_alpha 90
_cell_angle_beta 90
_cell_angle_gamma 120
_cell_volume 255.0368
_symmetry_space_group_name_H-M R-3cH
loop_
	_symmetry_equiv_pos_as_xyz
	 'x, y, z '
	 '-x, -y, -z '
	 '-x+y, -x, z '
	 '-x+y, y, z+1/2 '
	 '-y, -x, z+1/2 '
	 '-y, x-y, z '
	 'y, -x+y, -z '
	 'y, x, -z+1/2 '
	 'x-y, -y, -z+1/2 '
	 'x-y, x, -z '
	 '-x, -x+y, -z+1/2 '
	 'x, x-y, z+1/2 '
	 'x-1/3, y+1/3, z+1/3 '
	 '-x-1/3, -y+1/3, -z+1/3 '
	 '-x+y-1/3, -x+1/3, z+1/3 '
	 '-x+y-1/3, y+1/3, z-1/6 '
	 '-y-1/3, -x+1/3, z-1/6 '
	 '-y-1/3, x-y+1/3, z+1/3 '
	 'y-1/3, -x+y+1/3, -z+1/3 '
	 'y-1/3, x+1/3, -z-1/6 '
	 'x-y-1/3, -y+1/3, -z-1/6 '
	 'x-y-1/3, x+1/3, -z+1/3 '
	 '-x-1/3, -x+y+1/3, -z-1/6 '
	 'x-1/3, x-y+1/3, z-1/6 '
	 'x+1/3, y-1/3, z-1/3 '
	 '-x+1/3, -y-1/3, -z-1/3 '
	 '-x+y+1/3, -x-1/3, z-1/3 '
	 '-x+y+1/3, y-1/3, z+1/6 '
	 '-y+1/3, -x-1/3, z+1/6 '
	 '-y+1/3, x-y-1/3, z-1/3 '
	 'y+1/3, -x+y-1/3, -z-1/3 '
	 'y+1/3, x-1/3, -z+1/6 '
	 'x-y+1/3, -y-1/3, -z+1/6 '
	 'x-y+1/3, x-1/3, -z-1/3 '
	 '-x+1/3, -x+y-1/3, -z+1/6 '
	 'x+1/3, x-y-1/3, z+1/6 '
loop_
_atom_site_label
_atom_site_type_symbol
_atom_site_site_symmetry_multiplicity
_atom_site_fract_x
_atom_site_fract_y
_atom_site_fract_z
_atom_site_occupancy
_atom_site_B_iso_or_equiv
Al1 Al+3  12 0 0 0.148 1 0.3324347
O1 O-2  18 0.306 0 0.25 1 0.3324347

data_phase_Si_2
_pd_block_id Si_2
_pd_block_diffractogram_id pattern_2

_pd_phase_name Si_2
_cell_length_a 5.431643
_cell_length_b 5.431643
_cell_length_c 5.431643
_cell_angle_alpha 90
_cell_angle_beta 90
_cell_angle_gamma 90
_cell_volume 160.2484
_symmetry_space_group_name_H-M Fd-3mS
loop_
	_symmetry_equiv_pos_as_xyz
	 'x, y, z '
	 '-x, z+1/2, -y+1/2 '
	 '-x+1/4, -y+1/4, -z+1/4 '
	 '-x+1/4, -z+1/4, -y+1/4 '
	 '-x+1/2, -z, y+1/2 '
	 '-x+1/2, y+1/2, -z '
	 '-x-1/4, z-1/4, y+1/4 '
	 '-x-1/4, y+1/4, z-1/4 '
	 '-y, -z+1/2, x+1/2 '
	 '-y, x+1/2, -z+1/2 '
	 '-y+1/4, -x+1/4, -z+1/4 '
	 '-y+1/4, -z+1/4, -x+1/4 '
	 '-y+1/2, -x, z+1/2 '
	 '-y+1/2, z+1/2, -x '
	 '-y-1/4, z+1/4, x-1/4 '
	 '-y-1/4, x-1/4, z+1/4 '
	 '-z, -x+1/2, y+1/2 '
	 '-z, y+1/2, -x+1/2 '
	 '-z+1/4, -x+1/4, -y+1/4 '
	 '-z+1/4, -y+1/4, -x+1/4 '
	 '-z+1/2, -y, x+1/2 '
	 '-z+1/2, x+1/2, -y '
	 '-z-1/4, y-1/4, x+1/4 '
	 '-z-1/4, x+1/4, y-1/4 '
	 'z, y, x '
	 'z, x, y '
	 'z+1/4, -y-1/4, x-1/4 '
	 'z+1/4, x-1/4, -y-1/4 '
	 'z+1/2, -x, -y+1/2 '
	 'z+1/2, -y+1/2, -x '
	 'z-1/4, -x-1/4, y+1/4 '
	 'z-1/4, y+1/4, -x-1/4 '
	 'y, z, x '
	 'y, x, z '
	 'y+1/4, -x-1/4, z-1/4 '
	 'y+1/4, z-1/4, -x-1/4 '
	 'y+1/2, -x+1/2, -z '
	 'y+1/2, -z, -x+1/2 '
	 'y-1/4, -z-1/4, x+1/4 '
	 'y-1/4, x+1/4, -z-1/4 '
	 'x, z, y '
	 '-x, -y+1/2, z+1/2 '
	 'x+1/4, -z-1/4, y-1/4 '
	 'x+1/4, y-1/4, -z-1/4 '
	 'x+1/2, -y, -z+1/2 '
	 'x+1/2, -z+1/2, -y '
	 'x-1/4, -y-1/4, z+1/4 '
	 'x-1/4, z+1/4, -y-1/4 '
	 'x+1/2, y+1/2, z '
	 '-x+1/2, z, -y+1/2 '
	 '-x-1/4, -y-1/4, -z+1/4 '
	 '-x-1/4, -z-1/4, -y+1/4 '
	 '-x, -z+1/2, y+1/2 '
	 '-x, y, -z '
	 '-x+1/4, z+1/4, y+1/4 '
	 '-x+1/4, y-1/4, z-1/4 '
	 '-y+1/2, -z, x+1/2 '
	 '-y+1/2, x, -z+1/2 '
	 '-y-1/4, -x-1/4, -z+1/4 '
	 '-y-1/4, -z-1/4, -x+1/4 '
	 '-y, -x+1/2, z+1/2 '
	 '-y, z, -x '
	 '-y+1/4, z-1/4, x-1/4 '
	 '-y+1/4, x+1/4, z+1/4 '
	 '-z+1/2, -x, y+1/2 '
	 '-z+1/2, y, -x+1/2 '
	 '-z-1/4, -x-1/4, -y+1/4 '
	 '-z-1/4, -y-1/4, -x+1/4 '
	 '-z, -y+1/2, x+1/2 '
	 '-z, x, -y '
	 '-z+1/4, y+1/4, x+1/4 '
	 '-z+1/4, x-1/4, y-1/4 '
	 'z+1/2, y+1/2, x '
	 'z+1/2, x+1/2, y '
	 'z-1/4, -y+1/4, x-1/4 '
	 'z-1/4, x+1/4, -y-1/4 '
	 'z, -x+1/2, -y+1/2 '
	 'z, -y, -x '
	 'z+1/4, -x+1/4, y+1/4 '
	 'z+1/4, y-1/4, -x-1/4 '
	 'y+1/2, z+1/2, x '
	 'y+1/2, x+1/2, z '
	 'y-1/4, -x+1/4, z-1/4 '
	 'y-1/4, z+1/4, -x-1/4 '
	 'y, -x, -z '
	 'y, -z+1/2, -x+1/2 '
	 'y+1/4, -z+1/4, x+1/4 '
	 'y+1/4, x-1/4, -z-1/4 '
	 'x+1/2, z+1/2, y '
	 '-x+1/2, -y, z+1/2 '
	 'x-1/4, -z+1/4, y-1/4 '
	 'x-1/4, y+1/4, -z-1/4 '
	 'x, -y+1/2, -z+1/2 '
	 'x, -z, -y '
	 'x+1/4, -y+1/4, z+1/4 '
	 'x+1/4, z-1/4, -y-1/4 '
	 'x+1/2, y, z+1/2 '
	 '-x+1/2, z+1/2, -y '
	 '-x-1/4, -y+1/4, -z-1/4 '
	 '-x-1/4, -z+1/4, -y-1/4 '
	 '-x, -z, y '
	 '-x, y+1/2, -z+1/2 '
	 '-x+1/4, z-1/4, y-1/4 '
	 '-x+1/4, y+1/4, z+1/4 '
	 '-y+1/2, -z+1/2, x '
	 '-y+1/2, x+1/2, -z '
	 '-y-1/4, -x+1/4, -z-1/4 '
	 '-y-1/4, -z+1/4, -x-1/4 '
	 '-y, -x, z '
	 '-y, z+1/2, -x+1/2 '
	 '-y+1/4, z+1/4, x+1/4 '
	 '-y+1/4, x-1/4, z-1/4 '
	 '-z+1/2, -x+1/2, y '
	 '-z+1/2, y+1/2, -x '
	 '-z-1/4, -x+1/4, -y-1/4 '
	 '-z-1/4, -y+1/4, -x-1/4 '
	 '-z, -y, x '
	 '-z, x+1/2, -y+1/2 '
	 '-z+1/4, y-1/4, x-1/4 '
	 '-z+1/4, x+1/4, y+1/4 '
	 'z+1/2, y, x+1/2 '
	 'z+1/2, x, y+1/2 '
	 'z-1/4, -y-1/4, x+1/4 '
	 'z-1/4, x-1/4, -y+1/4 '
	 'z, -x, -y '
	 'z, -y+1/2, -x+1/2 '
	 'z+1/4, -x-1/4, y-1/4 '
	 'z+1/4, y+1/4, -x+1/4 '
	 'y+1/2, z, x+1/2 '
	 'y+1/2, x, z+1/2 '
	 'y-1/4, -x-1/4, z+1/4 '
	 'y-1/4, z-1/4, -x+1/4 '
	 'y, -x+1/2, -z+1/2 '
	 'y, -z, -x '
	 'y+1/4, -z-1/4, x-1/4 '
	 'y+1/4, x+1/4, -z+1/4 '
	 'x+1/2, z, y+1/2 '
	 '-x+1/2, -y+1/2, z '
	 'x-1/4, -z-1/4, y+1/4 '
	 'x-1/4, y-1/4, -z+1/4 '
	 'x, -y, -z '
	 'x, -z+1/2, -y+1/2 '
	 'x+1/4, -y-1/4, z-1/4 '
	 'x+1/4, z+1/4, -y+1/4 '
	 'x, y+1/2, z+1/2 '
	 '-x, z, -y '
	 '-x+1/4, -y-1/4, -z-1/4 '
	 '-x+1/4, -z-1/4, -y-1/4 '
	 '-x+1/2, -z+1/2, y '
	 '-x+1/2, y, -z+1/2 '
	 '-x-1/4, z+1/4, y-1/4 '
	 '-x-1/4, y-1/4, z+1/4 '
	 '-y, -z, x '
	 '-y, x, -z '
	 '-y+1/4, -x-1/4, -z-1/4 '
	 '-y+1/4, -z-1/4, -x-1/4 '
	 '-y+1/2, -x+1/2, z '
	 '-y+1/2, z, -x+1/2 '
	 '-y-1/4, z-1/4, x+1/4 '
	 '-y-1/4, x+1/4, z-1/4 '
	 '-z, -x, y '
	 '-z, y, -x '
	 '-z+1/4, -x-1/4, -y-1/4 '
	 '-z+1/4, -y-1/4, -x-1/4 '
	 '-z+1/2, -y+1/2, x '
	 '-z+1/2, x, -y+1/2 '
	 '-z-1/4, y+1/4, x-1/4 '
	 '-z-1/4, x-1/4, y+1/4 '
	 'z, y+1/2, x+1/2 '
	 'z, x+1/2, y+1/2 '
	 'z+1/4, -y+1/4, x+1/4 '
	 'z+1/4, x+1/4, -y+1/4 '
	 'z+1/2, -x+1/2, -y '
	 'z+1/2, -y, -x+1/2 '
	 'z-1/4, -x+1/4, y-1/4 '
	 'z-1/4, y-1/4, -x+1/4 '
	 'y, z+1/2, x+1/2 '
	 'y, x+1/2, z+1/2 '
	 'y+1/4, -x+1/4, z+1/4 '
	 'y+1/4, z+1/4, -x+1/4 '
	 'y+1/2, -x, -z+1/2 '
	 'y+1/2, -z+1/2, -x '
	 'y-1/4, -z+1/4, x-1/4 '
	 'y-1/4, x-1/4, -z+1/4 '
	 'x, z+1/2, y+1/2 '
	 '-x, -y, z '
	 'x+1/4, -z+1/4, y+1/4 '
	 'x+1/4, y+1/4, -z+1/4 '
	 'x+1/2, -y+1/2, -z '
	 'x+1/2, -z, -y+1/2 '
	 'x-1/4, -y+1/4, z-1/4 '
	 'x-1/4, z-1/4, -y+1/4 '
loop_
_atom_site_label
_atom_site_type_symbol
_atom_site_site_symmetry_multiplicity
_atom_site_fract_x
_atom_site_fract_y
_atom_site_fract_z
_atom_site_occupancy
_atom_site_B_iso_or_equiv
Si1 Si   8 0 0 0 1 0.4210582

data_phase_Al2O3_3
_pd_block_id Al2O3_3
_pd_block_diffractogram_id pattern_3

_pd_phase_name Al2O3_3
_cell_length_a 4.760899
_cell_length_b 4.760899
_cell_length_c 12.99743
_cell_angle_alpha 90
_cell_angle_beta 90
_cell_angle_gamma 120
_cell_volume 255.1327
_symmetry_space_group_name_H-M R-3cH
loop_
	_symmetry_equiv_pos_as_xyz
	 'x, y, z '
	 '-x, -y, -z '
	 '-x+y, -x, z '
	 '-x+y, y, z+1/2 '
	 '-y, -x, z+1/2 '
	 '-y, x-y, z '
	 'y, -x+y, -z '
	 'y, x, -z+1/2 '
	 'x-y, -y, -z+1/2 '
	 'x-y, x, -z '
	 '-x, -x+y, -z+1/2 '
	 'x, x-y, z+1/2 '
	 'x-1/3, y+1/3, z+1/3 '
	 '-x-1/3, -y+1/3, -z+1/3 '
	 '-x+y-1/3, -x+1/3, z+1/3 '
	 '-x+y-1/3, y+1/3, z-1/6 '
	 '-y-1/3, -x+1/3, z-1/6 '
	 '-y-1/3, x-y+1/3, z+1/3 '
	 'y-1/3, -x+y+1/3, -z+1/3 '
	 'y-1/3, x+1/3, -z-1/6 '
	 'x-y-1/3, -y+1/3, -z-1/6 '
	 'x-y-1/3, x+1/3, -z+1/3 '
	 '-x-1/3, -x+y+1/3, -z-1/6 '
	 'x-1/3, x-y+1/3, z-1/6 '
	 'x+1/3, y-1/3, z-1/3 '
	 '-x+1/3, -y-1/3, -z-1/3 '
	 '-x+y+1/3, -x-1/3, z-1/3 '
	 '-x+y+1/3, y-1/3, z+1/6 '
	 '-y+1/3, -x-1/3, z+1/6 '
	 '-y+1/3, x-y-1/3, z-1/3 '
	 'y+1/3, -x+y-1/3, -z-1/3 '
	 'y+1/3, x-1/3, -z+1/6 '
	 'x-y+1/3, -y-1/3, -z+1/6 '
	 'x-y+1/3, x-1/3, -z-1/3 '
	 '-x+1/3, -x+y-1/3, -z+1/6 '
	 'x+1/3, x-y-1/3, z+1/6 '
loop_
_atom_site_label
_atom_site_type_symbol
_atom_site_site_symmetry_multiplicity
_atom_site_fract_x
_atom_site_fract_y
_atom_site_fract_z
_atom_site_occupancy
_atom_site_B_iso_or_equiv
Al1 Al+3  12 0 0 0.148 1 0.352951
O1 O-2  18 0.306 0 0.25 1 0.352951

data_phase_Si_3
_pd_block_id Si_3
_pd_block_diffractogram_id pattern_3

_pd_phase_name Si_3
_cell_length_a 5.431971
_cell_length_b 5.431971
_cell_length_c 5.431971
_cell_angle_alpha 90
_cell_angle_beta 90
_cell_angle_gamma 90
_cell_volume 160.2774
_symmetry_space_group_name_H-M Fd-3mS
loop_
	_symmetry_equiv_pos_as_xyz
	 'x, y, z '
	 '-x, z+1/2, -y+1/2 '
	 '-x+1/4, -y+1/4, -z+1/4 '
	 '-x+1/4, -z+1/4, -y+1/4 '
	 '-x+1/2, -z, y+1/2 '
	 '-x+1/2, y+1/2, -z '
	 '-x-1/4, z-1/4, y+1/4 '
	 '-x-1/4, y+1/4, z-1/4 '
	 '-y, -z+1/2, x+1/2 '
	 '-y, x+1/2, -z+1/2 '
	 '-y+1/4, -x+1/4, -z+1/4 '
	 '-y+1/4, -z+1/4, -x+1/4 '
	 '-y+1/2, -x, z+1/2 '
	 '-y+1/2, z+1/2, -x '
	 '-y-1/4, z+1/4, x-1/4 '
	 '-y-1/4, x-1/4, z+1/4 '
	 '-z, -x+1/2, y+1/2 '
	 '-z, y+1/2, -x+1/2 '
	 '-z+1/4, -x+1/4, -y+1/4 '
	 '-z+1/4, -y+1/4, -x+1/4 '
	 '-z+1/2, -y, x+1/2 '
	 '-z+1/2, x+1/2, -y '
	 '-z-1/4, y-1/4, x+1/4 '
	 '-z-1/4, x+1/4, y-1/4 '
	 'z, y, x '
	 'z, x, y '
	 'z+1/4, -y-1/4, x-1/4 '
	 'z+1/4, x-1/4, -y-1/4 '
	 'z+1/2, -x, -y+1/2 '
	 'z+1/2, -y+1/2, -x '
	 'z-1/4, -x-1/4, y+1/4 '
	 'z-1/4, y+1/4, -x-1/4 '
	 'y, z, x '
	 'y, x, z '
	 'y+1/4, -x-1/4, z-1/4 '
	 'y+1/4, z-1/4, -x-1/4 '
	 'y+1/2, -x+1/2, -z '
	 'y+1/2, -z, -x+1/2 '
	 'y-1/4, -z-1/4, x+1/4 '
	 'y-1/4, x+1/4, -z-1/4 '
	 'x, z, y '
	 '-x, -y+1/2, z+1/2 '
	 'x+1/4, -z-1/4, y-1/4 '
	 'x+1/4, y-1/4, -z-1/4 '
	 'x+1/2, -y, -z+1/2 '
	 'x+1/2, -z+1/2, -y '
	 'x-1/4, -y-1/4, z+1/4 '
	 'x-1/4, z+1/4, -y-1/4 '
	 'x+1/2, y+1/2, z '
	 '-x+1/2, z, -y+1/2 '
	 '-x-1/4, -y-1/4, -z+1/4 '
	 '-x-1/4, -z-1/4, -y+1/4 '
	 '-x, -z+1/2, y+1/2 '
	 '-x, y, -z '
	 '-x+1/4, z+1/4, y+1/4 '
	 '-x+1/4, y-1/4, z-1/4 '
	 '-y+1/2, -z, x+1/2 '
	 '-y+1/2, x, -z+1/2 '
	 '-y-1/4, -x-1/4, -z+1/4 '
	 '-y-1/4, -z-1/4, -x+1/4 '
	 '-y, -x+1/2, z+1/2 '
	 '-y, z, -x '
	 '-y+1/4, z-1/4, x-1/4 '
	 '-y+1/4, x+1/4, z+1/4 '
	 '-z+1/2, -x, y+1/2 '
	 '-z+1/2, y, -x+1/2 '
	 '-z-1/4, -x-1/4, -y+1/4 '
	 '-z-1/4, -y-1/4, -x+1/4 '
	 '-z, -y+1/2, x+1/2 '
	 '-z, x, -y '
	 '-z+1/4, y+1/4, x+1/4 '
	 '-z+1/4, x-1/4, y-1/4 '
	 'z+1/2, y+1/2, x '
	 'z+1/2, x+1/2, y '
	 'z-1/4, -y+1/4, x-1/4 '
	 'z-1/4, x+1/4, -y-1/4 '
	 'z, -x+1/2, -y+1/2 '
	 'z, -y, -x '
	 'z+1/4, -x+1/4, y+1/4 '
	 'z+1/4, y-1/4, -x-1/4 '
	 'y+1/2, z+1/2, x '
	 'y+1/2, x+1/2, z '
	 'y-1/4, -x+1/4, z-1/4 '
	 'y-1/4, z+1/4, -x-1/4 '
	 'y, -x, -z '
	 'y, -z+1/2, -x+1/2 '
	 'y+1/4, -z+1/4, x+1/4 '
	 'y+1/4, x-1/4, -z-1/4 '
	 'x+1/2, z+1/2, y '
	 '-x+1/2, -y, z+1/2 '
	 'x-1/4, -z+1/4, y-1/4 '
	 'x-1/4, y+1/4, -z-1/4 '
	 'x, -y+1/2, -z+1/2 '
	 'x, -z, -y '
	 'x+1/4, -y+1/4, z+1/4 '
	 'x+1/4, z-1/4, -y-1/4 '
	 'x+1/2, y, z+1/2 '
	 '-x+1/2, z+1/2, -y '
	 '-x-1/4, -y+1/4, -z-1/4 '
	 '-x-1/4, -z+1/4, -y-1/4 '
	 '-x, -z, y '
	 '-x, y+1/2, -z+1/2 '
	 '-x+1/4, z-1/4, y-1/4 '
	 '-x+1/4, y+1/4, z+1/4 '
	 '-y+1/2, -z+1/2, x '
	 '-y+1/2, x+1/2, -z '
	 '-y-1/4, -x+1/4, -z-1/4 '
	 '-y-1/4, -z+1/4, -x-1/4 '
	 '-y, -x, z '
	 '-y, z+1/2, -x+1/2 '
	 '-y+1/4, z+1/4, x+1/4 '
	 '-y+1/4, x-1/4, z-1/4 '
	 '-z+1/2, -x+1/2, y '
	 '-z+1/2, y+1/2, -x '
	 '-z-1/4, -x+1/4, -y-1/4 '
	 '-z-1/4, -y+1/4, -x-1/4 '
	 '-z, -y, x '
	 '-z, x+1/2, -y+1/2 '
	 '-z+1/4, y-1/4, x-1/4 '
	 '-z+1/4, x+1/4, y+1/4 '
	 'z+1/2, y, x+1/2 '
	 'z+1/2, x, y+1/2 '
	 'z-1/4, -y-1/4, x+1/4 '
	 'z-1/4, x-1/4, -y+1/4 '
	 'z, -x, -y '
	 'z, -y+1/2, -x+1/2 '
	 'z+1/4, -x-1/4, y-1/4 '
	 'z+1/4, y+1/4, -x+1/4 '
	 'y+1/2, z, x+1/2 '
	 'y+1/2, x, z+1/2 '
	 'y-1/4, -x-1/4, z+1/4 '
	 'y-1/4, z-1/4, -x+1/4 '
	 'y, -x+1/2, -z+1/2 '
	 'y, -z, -x '
	 'y+1/4, -z-1/4, x-1/4 '
	 'y+1/4, x+1/4, -z+1/4 '
	 'x+1/2, z, y+1/2 '
	 '-x+1/2, -y+1/2, z '
	 'x-1/4, -z-1/4, y+1/4 '
	 'x-1/4, y-1/4, -z+1/4 '
	 'x, -y, -z '
	 'x, -z+1/2, -y+1/2 '
	 'x+1/4, -y-1/4, z-1/4 '
	 'x+1/4, z+1/4, -y+1/4 '
	 'x, y+1/2, z+1/2 '
	 '-x, z, -y '
	 '-x+1/4, -y-1/4, -z-1/4 '
	 '-x+1/4, -z-1/4, -y-1/4 '
	 '-x+1/2, -z+1/2, y '
	 '-x+1/2, y, -z+1/2 '
	 '-x-1/4, z+1/4, y-1/4 '
	 '-x-1/4, y-1/4, z+1/4 '
	 '-y, -z, x '
	 '-y, x, -z '
	 '-y+1/4, -x-1/4, -z-1/4 '
	 '-y+1/4, -z-1/4, -x-1/4 '
	 '-y+1/2, -x+1/2, z '
	 '-y+1/2, z, -x+1/2 '
	 '-y-1/4, z-1/4, x+1/4 '
	 '-y-1/4, x+1/4, z-1/4 '
	 '-z, -x, y '
	 '-z, y, -x '
	 '-z+1/4, -x-1/4, -y-1/4 '
	 '-z+1/4, -y-1/4, -x-1/4 '
	 '-z+1/2, -y+1/2, x '
	 '-z+1/2, x, -y+1/2 '
	 '-z-1/4, y+1/4, x-1/4 '
	 '-z-1/4, x-1/4, y+1/4 '
	 'z, y+1/2, x+1/2 '
	 'z, x+1/2, y+1/2 '
	 'z+1/4, -y+1/4, x+1/4 '
	 'z+1/4, x+1/4, -y+1/4 '
	 'z+1/2, -x+1/2, -y '
	 'z+1/2, -y, -x+1/2 '
	 'z-1/4, -x+1/4, y-1/4 '
	 'z-1/4, y-1/4, -x+1/4 '
	 'y, z+1/2, x+1/2 '
	 'y, x+1/2, z+1/2 '
	 'y+1/4, -x+1/4, z+1/4 '
	 'y+1/4, z+1/4, -x+1/4 '
	 'y+1/2, -x, -z+1/2 '
	 'y+1/2, -z+1/2, -x '
	 'y-1/4, -z+1/4, x-1/4 '
	 'y-1/4, x-1/4, -z+1/4 '
	 'x, z+1/2, y+1/2 '
	 '-x, -y, z '
	 'x+1/4, -z+1/4, y+1/4 '
	 'x+1/4, y+1/4, -z+1/4 '
	 'x+1/2, -y+1/2, -z '
	 'x+1/2, -z, -y+1/2 '
	 'x-1/4, -y+1/4, z-1/4 '
	 'x-1/4, z-1/4, -y+1/4 '
loop_
_atom_site_label
_atom_site_type_symbol
_atom_site_site_symmetry_multiplicity
_atom_site_fract_x
_atom_site_fract_y
_atom_site_fract_z
_atom_site_occupancy
_atom_site_B_iso_or_equiv
Si1 Si   8 0 0 0 1 0.4782371

data_phase_Al2O3_4
_pd_block_id Al2O3_4
_pd_block_diffractogram_id pattern_4

_pd_phase_name Al2O3_4
_cell_length_a 4.761482
_cell_length_b 4.761482
_cell_length_c 12.99914
_cell_angle_alpha 90
_cell_angle_beta 90
_cell_angle_gamma 120
_cell_volume 255.2287
_symmetry_space_group_name_H-M R-3cH
loop_
	_symmetry_equiv_pos_as_xyz
	 'x, y, z '
	 '-x, -y, -z '
	 '-x+y, -x, z '
	 '-x+y, y, z+1/2 '
	 '-y, -x, z+1/2 '
	 '-y, x-y, z '
	 'y, -x+y, -z '
	 'y, x, -z+1/2 '
	 'x-y, -y, -z+1/2 '
	 'x-y, x, -z '
	 '-x, -x+y, -z+1/2 '
	 'x, x-y, z+1/2 '
	 'x-1/3, y+1/3, z+1/3 '
	 '-x-1/3, -y+1/3, -z+1/3 '
	 '-x+y-1/3, -x+1/3, z+1/3 '
	 '-x+y-1/3, y+1/3, z-1/6 '
	 '-y-1/3, -x+1/3, z-1/6 '
	 '-y-1/3, x-y+1/3, z+1/3 '
	 'y-1/3, -x+y+1/3, -z+1/3 '
	 'y-1/3, x+1/3, -z-1/6 '
	 'x-y-1/3, -y+1/3, -z-1/6 '
	 'x-y-1/3, x+1/3, -z+1/3 '
	 '-x-1/3, -x+y+1/3, -z-1/6 '
	 'x-1/3, x-y+1/3, z-1/6 '
	 'x+1/3, y-1/3, z-1/3 '
	 '-x+1/3, -y-1/3, -z-1/3 '
	 '-x+y+1/3, -x-1/3, z-1/3 '
	 '-x+y+1/3, y-1/3, z+1/6 '
	 '-y+1/3, -x-1/3, z+1/6 '
	 '-y+1/3, x-y-1/3, z-1/3 '
	 'y+1/3, -x+y-1/3, -z-1/3 '
	 'y+1/3, x-1/3, -z+1/6 '
	 'x-y+1/3, -y-1/3, -z+1/6 '
	 'x-y+1/3, x-1/3, -z-1/3 '
	 '-x+1/3, -x+y-1/3, -z+1/6 '
	 'x+1/3, x-y-1/3, z+1/6 '
loop_
_atom_site_label
_atom_site_type_symbol
_atom_site_site_symmetry_multiplicity
_atom_site_fract_x
_atom_site_fract_y
_atom_site_fract_z
_atom_site_occupancy
_atom_site_B_iso_or_equiv
Al1 Al+3  12 0 0 0.148 1 0.3808612
O1 O-2  18 0.306 0 0.25 1 0.3808612

data_phase_Si_4
_pd_block_id Si_4
_pd_block_diffractogram_id pattern_4

_pd_phase_name Si_4
_cell_length_a 5.432321
_cell_length_b 5.432321
_cell_length_c 5.432321
_cell_angle_alpha 90
_cell_angle_beta 90
_cell_angle_gamma 90
_cell_volume 160.3084
_symmetry_space_group_name_H-M Fd-3mS
loop_
	_symmetry_equiv_pos_as_xyz
	 'x, y, z '
	 '-x, z+1/2, -y+1/2 '
	 '-x+1/4, -y+1/4, -z+1/4 '
	 '-x+1/4, -z+1/4, -y+1/4 '
	 '-x+1/2, -z, y+1/2 '
	 '-x+1/2, y+1/2, -z '
	 '-x-1/4, z-1/4, y+1/4 '
	 '-x-1/4, y+1/4, z-1/4 '
	 '-y, -z+1/2, x+1/2 '
	 '-y, x+1/2, -z+1/2 '
	 '-y+1/4, -x+1/4, -z+1/4 '
	 '-y+1/4, -z+1/4, -x+1/4 '
	 '-y+1/2, -x, z+1/2 '
	 '-y+1/2, z+1/2, -x '
	 '-y-1/4, z+1/4, x-1/4 '
	 '-y-1/4, x-1/4, z+1/4 '
	 '-z, -x+1/2, y+1/2 '
	 '-z, y+1/2, -x+1/2 '
	 '-z+1/4, -x+1/4, -y+1/4 '
	 '-z+1/4, -y+1/4, -x+1/4 '
	 '-z+1/2, -y, x+1/2 '
	 '-z+1/2, x+1/2, -y '
	 '-z-1/4, y-1/4, x+1/4 '
	 '-z-1/4, x+1/4, y-1/4 '
	 'z, y, x '
	 'z, x, y '
	 'z+1/4, -y-1/4, x-1/4 '
	 'z+1/4, x-1/4, -y-1/4 '
	 'z+1/2, -x, -y+1/2 '
	 'z+1/2, -y+1/2, -x '
	 'z-1/4, -x-1/4, y+1/4 '
	 'z-1/4, y+1/4, -x-1/4 '
	 'y, z, x '
	 'y, x, z '
	 'y+1/4, -x-1/4, z-1/4 '
	 'y+1/4, z-1/4, -x-1/4 '
	 'y+1/2, -x+1/2, -z '
	 'y+1/2, -z, -x+1/2 '
	 'y-1/4, -z-1/4, x+1/4 '
	 'y-1/4, x+1/4, -z-1/4 '
	 'x, z, y '
	 '-x, -y+1/2, z+1/2 '
	 'x+1/4, -z-1/4, y-1/4 '
	 'x+1/4, y-1/4, -z-1/4 '
	 'x+1/2, -y, -z+1/2 '
	 'x+1/2, -z+1/2, -y '
	 'x-1/4, -y-1/4, z+1/4 '
	 'x-1/4, z+1/4, -y-1/4 '
	 'x+1/2, y+1/2, z '
	 '-x+1/2, z, -y+1/2 '
	 '-x-1/4, -y-1/4, -z+1/4 '
	 '-x-1/4, -z-1/4, -y+1/4 '
	 '-x, -z+1/2, y+1/2 '
	 '-x, y, -z '
	 '-x+1/4, z+1/4, y+1/4 '
	 '-x+1/4, y-1/4, z-1/4 '
	 '-y+1/2, -z, x+1/2 '
	 '-y+1/2, x, -z+1/2 '
	 '-y-1/4, -x-1/4, -z+1/4 '
	 '-y-1/4, -z-1/4, -x+1/4 '
	 '-y, -x+1/2, z+1/2 '
	 '-y, z, -x '
	 '-y+1/4, z-1/4, x-1/4 '
	 '-y+1/4, x+1/4, z+1/4 '
	 '-z+1/2, -x, y+1/2 '
	 '-z+1/2, y, -x+1/2 '
	 '-z-1/4, -x-1/4, -y+1/4 '
	 '-z-1/4, -y-1/4, -x+1/4 '
	 '-z, -y+1/2, x+1/2 '
	 '-z, x, -y '
	 '-z+1/4, y+1/4, x+1/4 '
	 '-z+1/4, x-1/4, y-1/4 '
	 'z+1/2, y+1/2, x '
	 'z+1/2, x+1/2, y '
	 'z-1/4, -y+1/4, x-1/4 '
	 'z-1/4, x+1/4, -y-1/4 '
	 'z, -x+1/2, -y+1/2 '
	 'z, -y, -x '
	 'z+1/4, -x+1/4, y+1/4 '
	 'z+1/4, y-1/4, -x-1/4 '
	 'y+1/2, z+1/2, x '
	 'y+1/2, x+1/2, z '
	 'y-1/4, -x+1/4, z-1/4 '
	 'y-1/4, z+1/4, -x-1/4 '
	 'y, -x, -z '
	 'y, -z+1/2, -x+1/2 '
	 'y+1/4, -z+1/4, x+1/4 '
	 'y+1/4, x-1/4, -z-1/4 '
	 'x+1/2, z+1/2, y '
	 '-x+1/2, -y, z+1/2 '
	 'x-1/4, -z+1/4, y-1/4 '
	 'x-1/4, y+1/4, -z-1/4 '
	 'x, -y+1/2, -z+1/2 '
	 'x, -z, -y '
	 'x+1/4, -y+1/4, z+1/4 '
	 'x+1/4, z-1/4, -y-1/4 '
	 'x+1/2, y, z+1/2 '
	 '-x+1/2, z+1/2, -y '
	 '-x-1/4, -y+1/4, -z-1/4 '
	 '-x-1/4, -z+1/4, -y-1/4 '
	 '-x, -z, y '
	 '-x, y+1/2, -z+1/2 '
	 '-x+1/4, z-1/4, y-1/4 '
	 '-x+1/4, y+1/4, z+1/4 '
	 '-y+1/2, -z+1/2, x '
	 '-y+1/2, x+1/2, -z '
	 '-y-1/4, -x+1/4, -z-1/4 '
	 '-y-1/4, -z+1/4, -x-1/4 '
	 '-y, -x, z '
	 '-y, z+1/2, -x+1/2 '
	 '-y+1/4, z+1/4, x+1/4 '
	 '-y+1/4, x-1/4, z-1/4 '
	 '-z+1/2, -x+1/2, y '
	 '-z+1/2, y+1/2, -x '
	 '-z-1/4, -x+1/4, -y-1/4 '
	 '-z-1/4, -y+1/4, -x-1/4 '
	 '-z, -y, x '
	 '-z, x+1/2, -y+1/2 '
	 '-z+1/4, y-1/4, x-1/4 '
	 '-z+1/4, x+1/4, y+1/4 '
	 'z+1/2, y, x+1/2 '
	 'z+1/2, x, y+1/2 '
	 'z-1/4, -y-1/4, x+1/4 '
	 'z-1/4, x-1/4, -y+1/4 '
	 'z, -x, -y '
	 'z, -y+1/2, -x+1/2 '
	 'z+1/4, -x-1/4, y-1/4 '
	 'z+1/4, y+1/4, -x+1/4 '
	 'y+1/2, z, x+1/2 '
	 'y+1/2, x, z+1/2 '
	 'y-1/4, -x-1/4, z+1/4 '
	 'y-1/4, z-1/4, -x+1/4 '
	 'y, -x+1/2, -z+1/2 '
	 'y, -z, -x '
	 'y+1/4, -z-1/4, x-1/4 '
	 'y+1/4, x+1/4, -z+1/4 '
	 'x+1/2, z, y+1/2 '
	 '-x+1/2, -y+1/2, z '
	 'x-1/4, -z-1/4, y+1/4 '
	 'x-1/4, y-1/4, -z+1/4 '
	 'x, -y, -z '
	 'x, -z+1/2, -y+1/2 '
	 'x+1/4, -y-1/4, z-1/4 '
	 'x+1/4, z+1/4, -y+1/4 '
	 'x, y+1/2, z+1/2 '
	 '-x, z, -y '
	 '-x+1/4, -y-1/4, -z-1/4 '
	 '-x+1/4, -z-1/4, -y-1/4 '
	 '-x+1/2, -z+1/2, y '
	 '-x+1/2, y, -z+1/2 '
	 '-x-1/4, z+1/4, y-1/4 '
	 '-x-1/4, y-1/4, z+1/4 '
	 '-y, -z, x '
	 '-y, x, -z '
	 '-y+1/4, -x-1/4, -z-1/4 '
	 '-y+1/4, -z-1/4, -x-1/4 '
	 '-y+1/2, -x+1/2, z '
	 '-y+1/2, z, -x+1/2 '
	 '-y-1/4, z-1/4, x+1/4 '
	 '-y-1/4, x+1/4, z-1/4 '
	 '-z, -x, y '
	 '-z, y, -x '
	 '-z+1/4, -x-1/4, -y-1/4 '
	 '-z+1/4, -y-1/4, -x-1/4 '
	 '-z+1/2, -y+1/2, x '
	 '-z+1/2, x, -y+1/2 '
	 '-z-1/4, y+1/4, x-1/4 '
	 '-z-1/4, x-1/4, y+1/4 '
	 'z, y+1/2, x+1/2 '
	 'z, x+1/2, y+1/2 '
	 'z+1/4, -y+1/4, x+1/4 '
	 'z+1/4, x+1/4, -y+1/4 '
	 'z+1/2, -x+1/2, -y '
	 'z+1/2, -y, -x+1/2 '
	 'z-1/4, -x+1/4, y-1/4 '
	 'z-1/4, y-1/4, -x+1/4 '
	 'y, z+1/2, x+1/2 '
	 'y, x+1/2, z+1/2 '
	 'y+1/4, -x+1/4, z+1/4 '
	 'y+1/4, z+1/4, -x+1/4 '
	 'y+1/2, -x, -z+1/2 '
	 'y+1/2, -z+1/2, -x '
	 'y-1/4, -z+1/4, x-1/4 '
	 'y-1/4, x-1/4, -z+1/4 '
	 'x, z+1/2, y+1/2 '
	 '-x, -y, z '
	 'x+1/4, -z+1/4, y+1/4 '
	 'x+1/4, y+1/4, -z+1/4 '
	 'x+1/2, -y+1/2, -z '
	 'x+1/2, -z, -y+1/2 '
	 'x-1/4, -y+1/4, z-1/4 '
	 'x-1/4, z-1/4, -y+1/4 '
loop_
_atom_site_label
_atom_site_type_symbol
_atom_site_site_symmetry_multiplicity
_atom_site_fract_x
_atom_site_fract_y
_atom_site_fract_z
_atom_site_occupancy
_atom_site_B_iso_or_equiv
Si1 Si   8 0 0 0 1 0.5048632

data_phase_Al2O3_0
_pd_block_id Al2O3_0
_pd_block_diffractogram_id pattern_0

_pd_phase_name Al2O3_0
_cell_length_a 4.75932
_cell_length_b 4.75932
_cell_length_c 12.99241
_cell_angle_alpha 90
_cell_angle_beta 90
_cell_angle_gamma 120
_cell_volume 254.8649
_symmetry_space_group_name_H-M R-3cH
loop_
	_symmetry_equiv_pos_as_xyz
	 'x, y, z '
	 '-x, -y, -z '
	 '-x+y, -x, z '
	 '-x+y, y, z+1/2 '
	 '-y, -x, z+1/2 '
	 '-y, x-y, z '
	 'y, -x+y, -z '
	 'y, x, -z+1/2 '
	 'x-y, -y, -z+1/2 '
	 'x-y, x, -z '
	 '-x, -x+y, -z+1/2 '
	 'x, x-y, z+1/2 '
	 'x-1/3, y+1/3, z+1/3 '
	 '-x-1/3, -y+1/3, -z+1/3 '
	 '-x+y-1/3, -x+1/3, z+1/3 '
	 '-x+y-1/3, y+1/3, z-1/6 '
	 '-y-1/3, -x+1/3, z-1/6 '
	 '-y-1/3, x-y+1/3, z+1/3 '
	 'y-1/3, -x+y+1/3, -z+1/3 '
	 'y-1/3, x+1/3, -z-1/6 '
	 'x-y-1/3, -y+1/3, -z-1/6 '
	 'x-y-1/3, x+1/3, -z+1/3 '
	 '-x-1/3, -x+y+1/3, -z-1/6 '
	 'x-1/3, x-y+1/3, z-1/6 '
	 'x+1/3, y-1/3, z-1/3 '
	 '-x+1/3, -y-1/3, -z-1/3 '
	 '-x+y+1/3, -x-1/3, z-1/3 '
	 '-x+y+1/3, y-1/3, z+1/6 '
	 '-y+1/3, -x-1/3, z+1/6 '
	 '-y+1/3, x-y-1/3, z-1/3 '
	 'y+1/3, -x+y-1/3, -z-1/3 '
	 'y+1/3, x-1/3, -z+1/6 '
	 'x-y+1/3, -y-1/3, -z+1/6 '
	 'x-y+1/3, x-1/3, -z-1/3 '
	 '-x+1/3, -x+y-1/3, -z+1/6 '
	 'x+1/3, x-y-1/3, z+1/6 '
loop_
_atom_site_label
_atom_site_type_symbol
_atom_site_site_symmetry_multiplicity
_atom_site_fract_x
_atom_site_fract_y
_atom_site_fract_z
_atom_site_occupancy
_atom_site_B_iso_or_equiv
Al1 Al+3  12 0 0 0.148 1 0.4183603
O1 O-2  18 0.306 0 0.25 1 0.4183603

data_phase_Si_0
_pd_block_id Si_0
_pd_block_diffractogram_id pattern_0

_pd_phase_name Si_0
_cell_length_a 5.431047
_cell_length_b 5.431047
_cell_length_c 5.431047
_cell_angle_alpha 90
_cell_angle_beta 90
_cell_angle_gamma 90
_cell_volume 160.1956
_symmetry_space_group_name_H-M Fd-3mS
loop_
	_symmetry_equiv_pos_as_xyz
	 'x, y, z '
	 '-x, z+1/2, -y+1/2 '
	 '-x+1/4, -y+1/4, -z+1/4 '
	 '-x+1/4, -z+1/4, -y+1/4 '
	 '-x+1/2, -z, y+1/2 '
	 '-x+1/2, y+1/2, -z '
	 '-x-1/4, z-1/4, y+1/4 '
	 '-x-1/4, y+1/4, z-1/4 '
	 '-y, -z+1/2, x+1/2 '
	 '-y, x+1/2, -z+1/2 '
	 '-y+1/4, -x+1/4, -z+1/4 '
	 '-y+1/4, -z+1/4, -x+1/4 '
	 '-y+1/2, -x, z+1/2 '
	 '-y+1/2, z+1/2, -x '
	 '-y-1/4, z+1/4, x-1/4 '
	 '-y-1/4, x-1/4, z+1/4 '
	 '-z, -x+1/2, y+1/2 '
	 '-z, y+1/2, -x+1/2 '
	 '-z+1/4, -x+1/4, -y+1/4 '
	 '-z+1/4, -y+1/4, -x+1/4 '
	 '-z+1/2, -y, x+1/2 '
	 '-z+1/2, x+1/2, -y '
	 '-z-1/4, y-1/4, x+1/4 '
	 '-z-1/4, x+1/4, y-1/4 '
	 'z, y, x '
	 'z, x, y '
	 'z+1/4, -y-1/4, x-1/4 '
	 'z+1/4, x-1/4, -y-1/4 '
	 'z+1/2, -x, -y+1/2 '
	 'z+1/2, -y+1/2, -x '
	 'z-1/4, -x-1/4, y+1/4 '
	 'z-1/4, y+1/4, -x-1/4 '
	 'y, z, x '
	 'y, x, z '
	 'y+1/4, -x-1/4, z-1/4 '
	 'y+1/4, z-1/4, -x-1/4 '
	 'y+1/2, -x+1/2, -z '
	 'y+1/2, -z, -x+1/2 '
	 'y-1/4, -z-1/4, x+1/4 '
	 'y-1/4, x+1/4, -z-1/4 '
	 'x, z, y '
	 '-x, -y+1/2, z+1/2 '
	 'x+1/4, -z-1/4, y-1/4 '
	 'x+1/4, y-1/4, -z-1/4 '
	 'x+1/2, -y, -z+1/2 '
	 'x+1/2, -z+1/2, -y '
	 'x-1/4, -y-1/4, z+1/4 '
	 'x-1/4, z+1/4, -y-1/4 '
	 'x+1/2, y+1/2, z '
	 '-x+1/2, z, -y+1/2 '
	 '-x-1/4, -y-1/4, -z+1/4 '
	 '-x-1/4, -z-1/4, -y+1/4 '
	 '-x, -z+1/2, y+1/2 '
	 '-x, y, -z '
	 '-x+1/4, z+1/4, y+1/4 '
	 '-x+1/4, y-1/4, z-1/4 '
	 '-y+1/2, -z, x+1/2 '
	 '-y+1/2, x, -z+1/2 '
	 '-y-1/4, -x-1/4, -z+1/4 '
	 '-y-1/4, -z-1/4, -x+1/4 '
	 '-y, -x+1/2, z+1/2 '
	 '-y, z, -x '
	 '-y+1/4, z-1/4, x-1/4 '
	 '-y+1/4, x+1/4, z+1/4 '
	 '-z+1/2, -x, y+1/2 '
	 '-z+1/2, y, -x+1/2 '
	 '-z-1/4, -x-1/4, -y+1/4 '
	 '-z-1/4, -y-1/4, -x+1/4 '
	 '-z, -y+1/2, x+1/2 '
	 '-z, x, -y '
	 '-z+1/4, y+1/4, x+1/4 '
	 '-z+1/4, x-1/4, y-1/4 '
	 'z+1/2, y+1/2, x '
	 'z+1/2, x+1/2, y '
	 'z-1/4, -y+1/4, x-1/4 '
	 'z-1/4, x+1/4, -y-1/4 '
	 'z, -x+1/2, -y+1/2 '
	 'z, -y, -x '
	 'z+1/4, -x+1/4, y+1/4 '
	 'z+1/4, y-1/4, -x-1/4 '
	 'y+1/2, z+1/2, x '
	 'y+1/2, x+1/2, z '
	 'y-1/4, -x+1/4, z-1/4 '
	 'y-1/4, z+1/4, -x-1/4 '
	 'y, -x, -z '
	 'y, -z+1/2, -x+1/2 '
	 'y+1/4, -z+1/4, x+1/4 '
	 'y+1/4, x-1/4, -z-1/4 '
	 'x+1/2, z+1/2, y '
	 '-x+1/2, -y, z+1/2 '
	 'x-1/4, -z+1/4, y-1/4 '
	 'x-1/4, y+1/4, -z-1/4 '
	 'x, -y+1/2, -z+1/2 '
	 'x, -z, -y '
	 'x+1/4, -y+1/4, z+1/4 '
	 'x+1/4, z-1/4, -y-1/4 '
	 'x+1/2, y, z+1/2 '
	 '-x+1/2, z+1/2, -y '
	 '-x-1/4, -y+1/4, -z-1/4 '
	 '-x-1/4, -z+1/4, -y-1/4 '
	 '-x, -z, y '
	 '-x, y+1/2, -z+1/2 '
	 '-x+1/4, z-1/4, y-1/4 '
	 '-x+1/4, y+1/4, z+1/4 '
	 '-y+1/2, -z+1/2, x '
	 '-y+1/2, x+1/2, -z '
	 '-y-1/4, -x+1/4, -z-1/4 '
	 '-y-1/4, -z+1/4, -x-1/4 '
	 '-y, -x, z '
	 '-y, z+1/2, -x+1/2 '
	 '-y+1/4, z+1/4, x+1/4 '
	 '-y+1/4, x-1/4, z-1/4 '
	 '-z+1/2, -x+1/2, y '
	 '-z+1/2, y+1/2, -x '
	 '-z-1/4, -x+1/4, -y-1/4 '
	 '-z-1/4, -y+1/4, -x-1/4 '
	 '-z, -y, x '
	 '-z, x+1/2, -y+1/2 '
	 '-z+1/4, y-1/4, x-1/4 '
	 '-z+1/4, x+1/4, y+1/4 '
	 'z+1/2, y, x+1/2 '
	 'z+1/2, x, y+1/2 '
	 'z-1/4, -y-1/4, x+1/4 '
	 'z-1/4, x-1/4, -y+1/4 '
	 'z, -x, -y '
	 'z, -y+1/2, -x+1/2 '
	 'z+1/4, -x-1/4, y-1/4 '
	 'z+1/4, y+1/4, -x+1/4 '
	 'y+1/2, z, x+1/2 '
	 'y+1/2, x, z+1/2 '
	 'y-1/4, -x-1/4, z+1/4 '
	 'y-1/4, z-1/4, -x+1/4 '
	 'y, -x+1/2, -z+1/2 '
	 'y, -z, -x '
	 'y+1/4, -z-1/4, x-1/4 '
	 'y+1/4, x+1/4, -z+1/4 '
	 'x+1/2, z, y+1/2 '
	 '-x+1/2, -y+1/2, z '
	 'x-1/4, -z-1/4, y+1/4 '
	 'x-1/4, y-1/4, -z+1/4 '
	 'x, -y, -z '
	 'x, -z+1/2, -y+1/2 '
	 'x+1/4, -y-1/4, z-1/4 '
	 'x+1/4, z+1/4, -y+1/4 '
	 'x, y+1/2, z+1/2 '
	 '-x, z, -y '
	 '-x+1/4, -y-1/4, -z-1/4 '
	 '-x+1/4, -z-1/4, -y-1/4 '
	 '-x+1/2, -z+1/2, y '
	 '-x+1/2, y, -z+1/2 '
	 '-x-1/4, z+1/4, y-1/4 '
	 '-x-1/4, y-1/4, z+1/4 '
	 '-y, -z, x '
	 '-y, x, -z '
	 '-y+1/4, -x-1/4, -z-1/4 '
	 '-y+1/4, -z-1/4, -x-1/4 '
	 '-y+1/2, -x+1/2, z '
	 '-y+1/2, z, -x+1/2 '
	 '-y-1/4, z-1/4, x+1/4 '
	 '-y-1/4, x+1/4, z-1/4 '
	 '-z, -x, y '
	 '-z, y, -x '
	 '-z+1/4, -x-1/4, -y-1/4 '
	 '-z+1/4, -y-1/4, -x-1/4 '
	 '-z+1/2, -y+1/2, x '
	 '-z+1/2, x, -y+1/2 '
	 '-z-1/4, y+1/4, x-1/4 '
	 '-z-1/4, x-1/4, y+1/4 '
	 'z, y+1/2, x+1/2 '
	 'z, x+1/2, y+1/2 '
	 'z+1/4, -y+1/4, x+1/4 '
	 'z+1/4, x+1/4, -y+1/4 '
	 'z+1/2, -x+1/2, -y '
	 'z+1/2, -y, -x+1/2 '
	 'z-1/4, -x+1/4, y-1/4 '
	 'z-1/4, y-1/4, -x+1/4 '
	 'y, z+1/2, x+1/2 '
	 'y, x+1/2, z+1/2 '
	 'y+1/4, -x+1/4, z+1/4 '
	 'y+1/4, z+1/4, -x+1/4 '
	 'y+1/2, -x, -z+1/2 '
	 'y+1/2, -z+1/2, -x '
	 'y-1/4, -z+1/4, x-1/4 '
	 'y-1/4, x-1/4, -z+1/4 '
	 'x, z+1/2, y+1/2 '
	 '-x, -y, z '
	 'x+1/4, -z+1/4, y+1/4 '
	 'x+1/4, y+1/4, -z+1/4 '
	 'x+1/2, -y+1/2, -z '
	 'x+1/2, -z, -y+1/2 '
	 'x-1/4, -y+1/4, z-1/4 '
	 'x-1/4, z-1/4, -y+1/4 '
loop_
_atom_site_label
_atom_site_type_symbol
_atom_site_site_symmetry_multiplicity
_atom_site_fract_x
_atom_site_fract_y
_atom_site_fract_z
_atom_site_occupancy
_atom_site_B_iso_or_equiv
Si1 Si   8 0 0 0 1 0.3783246

data_phase_Al2O3_1
_pd_block_id Al2O3_1
_pd_block_diffractogram_id pattern_1

_pd_phase_name Al2O3_1
_cell_length_a 4.75981
_cell_length_b 4.75981
_cell_length_c 12.99406
_cell_angle_alpha 90
_cell_angle_beta 90
_cell_angle_gamma 120
_cell_volume 254.9499
_symmetry_space_group_name_H-M R-3cH
loop_
	_symmetry_equiv_pos_as_xyz
	 'x, y, z '
	 '-x, -y, -z '
	 '-x+y, -x, z '
	 '-x+y, y, z+1/2 '
	 '-y, -x, z+1/2 '
	 '-y, x-y, z '
	 'y, -x+y, -z '
	 'y, x, -z+1/2 '
	 'x-y, -y, -z+1/2 '
	 'x-y, x, -z '
	 '-x, -x+y, -z+1/2 '
	 'x, x-y, z+1/2 '
	 'x-1/3, y+1/3, z+1/3 '
	 '-x-1/3, -y+1/3, -z+1/3 '
	 '-x+y-1/3, -x+1/3, z+1/3 '
	 '-x+y-1/3, y+1/3, z-1/6 '
	 '-y-1/3, -x+1/3, z-1/6 '
	 '-y-1/3, x-y+1/3, z+1/3 '
	 'y-1/3, -x+y+1/3, -z+1/3 '
	 'y-1/3, x+1/3, -z-1/6 '
	 'x-y-1/3, -y+1/3, -z-1/6 '
	 'x-y-1/3, x+1/3, -z+1/3 '
	 '-x-1/3, -x+y+1/3, -z-1/6 '
	 'x-1/3, x-y+1/3, z-1/6 '
	 'x+1/3, y-1/3, z-1/3 '
	 '-x+1/3, -y-1/3, -z-1/3 '
	 '-x+y+1/3, -x-1/3, z-1/3 '
	 '-x+y+1/3, y-1/3, z+1/6 '
	 '-y+1/3, -x-1/3, z+1/6 '
	 '-y+1/3, x-y-1/3, z-1/3 '
	 'y+1/3, -x+y-1/3, -z-1/3 '
	 'y+1/3, x-1/3, -z+1/6 '
	 'x-y+1/3, -y-1/3, -z+1/6 '
	 'x-y+1/3, x-1/3, -z-1/3 '
	 '-x+1/3, -x+y-1/3, -z+1/6 '
	 'x+1/3, x-y-1/3, z+1/6 '
loop_
_atom_site_label
_atom_site_type_symbol
_atom_site_site_symmetry_multiplicity
_atom_site_fract_x
_atom_site_fract_y
_atom_site_fract_z
_atom_site_occupancy
_atom_site_B_iso_or_equiv
Al1 Al+3  12 0 0 0.148 1 0.3500396
O1 O-2  18 0.306 0 0.25 1 0.3500396

data_phase_Si_1
_pd_block_id Si_1
_pd_block_diffractogram_id pattern_1

_pd_phase_name Si_1
_cell_length_a 5.431355
_cell_length_b 5.431355
_cell_length_c 5.431355
_cell_angle_alpha 90
_cell_angle_beta 90
_cell_angle_gamma 90
_cell_volume 160.2229
_symmetry_space_group_name_H-M Fd-3mS
loop_
	_symmetry_equiv_pos_as_xyz
	 'x, y, z '
	 '-x, z+1/2, -y+1/2 '
	 '-x+1/4, -y+1/4, -z+1/4 '
	 '-x+1/4, -z+1/4, -y+1/4 '
	 '-x+1/2, -z, y+1/2 '
	 '-x+1/2, y+1/2, -z '
	 '-x-1/4, z-1/4, y+1/4 '
	 '-x-1/4, y+1/4, z-1/4 '
	 '-y, -z+1/2, x+1/2 '
	 '-y, x+1/2, -z+1/2 '
	 '-y+1/4, -x+1/4, -z+1/4 '
	 '-y+1/4, -z+1/4, -x+1/4 '
	 '-y+1/2, -x, z+1/2 '
	 '-y+1/2, z+1/2, -x '
	 '-y-1/4, z+1/4, x-1/4 '
	 '-y-1/4, x-1/4, z+1/4 '
	 '-z, -x+1/2, y+1/2 '
	 '-z, y+1/2, -x+1/2 '
	 '-z+1/4, -x+1/4, -y+1/4 '
	 '-z+1/4, -y+1/4, -x+1/4 '
	 '-z+1/2, -y, x+1/2 '
	 '-z+1/2, x+1/2, -y '
	 '-z-1/4, y-1/4, x+1/4 '
	 '-z-1/4, x+1/4, y-1/4 '
	 'z, y, x '
	 'z, x, y '
	 'z+1/4, -y-1/4, x-1/4 '
	 'z+1/4, x-1/4, -y-1/4 '
	 'z+1/2, -x, -y+1/2 '
	 'z+1/2, -y+1/2, -x '
	 'z-1/4, -x-1/4, y+1/4 '
	 'z-1/4, y+1/4, -x-1/4 '
	 'y, z, x '
	 'y, x, z '
	 'y+1/4, -x-1/4, z-1/4 '
	 'y+1/4, z-1/4, -x-1/4 '
	 'y+1/2, -x+1/2, -z '
	 'y+1/2, -z, -x+1/2 '
	 'y-1/4, -z-1/4, x+1/4 '
	 'y-1/4, x+1/4, -z-1/4 '
	 'x, z, y '
	 '-x, -y+1/2, z+1/2 '
	 'x+1/4, -z-1/4, y-1/4 '
	 'x+1/4, y-1/4, -z-1/4 '
	 'x+1/2, -y, -z+1/2 '
	 'x+1/2, -z+1/2, -y '
	 'x-1/4, -y-1/4, z+1/4 '
	 'x-1/4, z+1/4, -y-1/4 '
	 'x+1/2, y+1/2, z '
	 '-x+1/2, z, -y+1/2 '
	 '-x-1/4, -y-1/4, -z+1/4 '
	 '-x-1/4, -z-1/4, -y+1/4 '
	 '-x, -z+1/2, y+1/2 '
	 '-x, y, -z '
	 '-x+1/4, z+1/4, y+1/4 '
	 '-x+1/4, y-1/4, z-1/4 '
	 '-y+1/2, -z, x+1/2 '
	 '-y+1/2, x, -z+1/2 '
	 '-y-1/4, -x-1/4, -z+1/4 '
	 '-y-1/4, -z-1/4, -x+1/4 '
	 '-y, -x+1/2, z+1/2 '
	 '-y, z, -x '
	 '-y+1/4, z-1/4, x-1/4 '
	 '-y+1/4, x+1/4, z+1/4 '
	 '-z+1/2, -x, y+1/2 '
	 '-z+1/2, y, -x+1/2 '
	 '-z-1/4, -x-1/4, -y+1/4 '
	 '-z-1/4, -y-1/4, -x+1/4 '
	 '-z, -y+1/2, x+1/2 '
	 '-z, x, -y '
	 '-z+1/4, y+1/4, x+1/4 '
	 '-z+1/4, x-1/4, y-1/4 '
	 'z+1/2, y+1/2, x '
	 'z+1/2, x+1/2, y '
	 'z-1/4, -y+1/4, x-1/4 '
	 'z-1/4, x+1/4, -y-1/4 '
	 'z, -x+1/2, -y+1/2 '
	 'z, -y, -x '
	 'z+1/4, -x+1/4, y+1/4 '
	 'z+1/4, y-1/4, -x-1/4 '
	 'y+1/2, z+1/2, x '
	 'y+1/2, x+1/2, z '
	 'y-1/4, -x+1/4, z-1/4 '
	 'y-1/4, z+1/4, -x-1/4 '
	 'y, -x, -z '
	 'y, -z+1/2, -x+1/2 '
	 'y+1/4, -z+1/4, x+1/4 '
	 'y+1/4, x-1/4, -z-1/4 '
	 'x+1/2, z+1/2, y '
	 '-x+1/2, -y, z+1/2 '
	 'x-1/4, -z+1/4, y-1/4 '
	 'x-1/4, y+1/4, -z-1/4 '
	 'x, -y+1/2, -z+1/2 '
	 'x, -z, -y '
	 'x+1/4, -y+1/4, z+1/4 '
	 'x+1/4, z-1/4, -y-1/4 '
	 'x+1/2, y, z+1/2 '
	 '-x+1/2, z+1/2, -y '
	 '-x-1/4, -y+1/4, -z-1/4 '
	 '-x-1/4, -z+1/4, -y-1/4 '
	 '-x, -z, y '
	 '-x, y+1/2, -z+1/2 '
	 '-x+1/4, z-1/4, y-1/4 '
	 '-x+1/4, y+1/4, z+1/4 '
	 '-y+1/2, -z+1/2, x '
	 '-y+1/2, x+1/2, -z '
	 '-y-1/4, -x+1/4, -z-1/4 '
	 '-y-1/4, -z+1/4, -x-1/4 '
	 '-y, -x, z '
	 '-y, z+1/2, -x+1/2 '
	 '-y+1/4, z+1/4, x+1/4 '
	 '-y+1/4, x-1/4, z-1/4 '
	 '-z+1/2, -x+1/2, y '
	 '-z+1/2, y+1/2, -x '
	 '-z-1/4, -x+1/4, -y-1/4 '
	 '-z-1/4, -y+1/4, -x-1/4 '
	 '-z, -y, x '
	 '-z, x+1/2, -y+1/2 '
	 '-z+1/4, y-1/4, x-1/4 '
	 '-z+1/4, x+1/4, y+1/4 '
	 'z+1/2, y, x+1/2 '
	 'z+1/2, x, y+1/2 '
	 'z-1/4, -y-1/4, x+1/4 '
	 'z-1/4, x-1/4, -y+1/4 '
	 'z, -x, -y '
	 'z, -y+1/2, -x+1/2 '
	 'z+1/4, -x-1/4, y-1/4 '
	 'z+1/4, y+1/4, -x+1/4 '
	 'y+1/2, z, x+1/2 '
	 'y+1/2, x, z+1/2 '
	 'y-1/4, -x-1/4, z+1/4 '
	 'y-1/4, z-1/4, -x+1/4 '
	 'y, -x+1/2, -z+1/2 '
	 'y, -z, -x '
	 'y+1/4, -z-1/4, x-1/4 '
	 'y+1/4, x+1/4, -z+1/4 '
	 'x+1/2, z, y+1/2 '
	 '-x+1/2, -y+1/2, z '
	 'x-1/4, -z-1/4, y+1/4 '
	 'x-1/4, y-1/4, -z+1/4 '
	 'x, -y, -z '
	 'x, -z+1/2, -y+1/2 '
	 'x+1/4, -y-1/4, z-1/4 '
	 'x+1/4, z+1/4, -y+1/4 '
	 'x, y+1/2, z+1/2 '
	 '-x, z, -y '
	 '-x+1/4, -y-1/4, -z-1/4 '
	 '-x+1/4, -z-1/4, -y-1/4 '
	 '-x+1/2, -z+1/2, y '
	 '-x+1/2, y, -z+1/2 '
	 '-x-1/4, z+1/4, y-1/4 '
	 '-x-1/4, y-1/4, z+1/4 '
	 '-y, -z, x '
	 '-y, x, -z '
	 '-y+1/4, -x-1/4, -z-1/4 '
	 '-y+1/4, -z-1/4, -x-1/4 '
	 '-y+1/2, -x+1/2, z '
	 '-y+1/2, z, -x+1/2 '
	 '-y-1/4, z-1/4, x+1/4 '
	 '-y-1/4, x+1/4, z-1/4 '
	 '-z, -x, y '
	 '-z, y, -x '
	 '-z+1/4, -x-1/4, -y-1/4 '
	 '-z+1/4, -y-1/4, -x-1/4 '
	 '-z+1/2, -y+1/2, x '
	 '-z+1/2, x, -y+1/2 '
	 '-z-1/4, y+1/4, x-1/4 '
	 '-z-1/4, x-1/4, y+1/4 '
	 'z, y+1/2, x+1/2 '
	 'z, x+1/2, y+1/2 '
	 'z+1/4, -y+1/4, x+1/4 '
	 'z+1/4, x+1/4, -y+1/4 '
	 'z+1/2, -x+1/2, -y '
	 'z+1/2, -y, -x+1/2 '
	 'z-1/4, -x+1/4, y-1/4 '
	 'z-1/4, y-1/4, -x+1/4 '
	 'y, z+1/2, x+1/2 '
	 'y, x+1/2, z+1/2 '
	 'y+1/4, -x+1/4, z+1/4 '
	 'y+1/4, z+1/4, -x+1/4 '
	 'y+1/2, -x, -z+1/2 '
	 'y+1/2, -z+1/2, -x '
	 'y-1/4, -z+1/4, x-1/4 '
	 'y-1/4, x-1/4, -z+1/4 '
	 'x, z+1/2, y+1/2 '
	 '-x, -y, z '
	 'x+1/4, -z+1/4, y+1/4 '
	 'x+1/4, y+1/4, -z+1/4 '
	 'x+1/2, -y+1/2, -z '
	 'x+1/2, -z, -y+1/2 '
	 'x-1/4, -y+1/4, z-1/4 '
	 'x-1/4, z-1/4, -y+1/4 '
loop_
_atom_site_label
_atom_site_type_symbol
_atom_site_site_symmetry_multiplicity
_atom_site_fract_x
_atom_site_fract_y
_atom_site_fract_z
_atom_site_occupancy
_atom_site_B_iso_or_equiv
Si1 Si   8 0 0 0 1 0.4084884

data_phase_Al2O3_2
_pd_block_id Al2O3_2
_pd_block_diffractogram_id pattern_2

_pd_phase_name Al2O3_2
_cell_length_a 4.760329
_cell_length_b 4.760329
_cell_length_c 12.99566
_cell_angle_alpha 90
_cell_angle_beta 90
_cell_angle_gamma 120
_cell_volume 255.0368
_symmetry_space_group_name_H-M R-3cH
loop_
	_symmetry_equiv_pos_as_xyz
	 'x, y, z '
	 '-x, -y, -z '
	 '-x+y, -x, z '
	 '-x+y, y, z+1/2 '
	 '-y, -x, z+1/2 '
	 '-y, x-y, z '
	 'y, -x+y, -z '
	 'y, x, -z+1/2 '
	 'x-y, -y, -z+1/2 '
	 'x-y, x, -z '
	 '-x, -x+y, -z+1/2 '
	 'x, x-y, z+1/2 '
	 'x-1/3, y+1/3, z+1/3 '
	 '-x-1/3, -y+1/3, -z+1/3 '
	 '-x+y-1/3, -x+1/3, z+1/3 '
	 '-x+y-1/3, y+1/3, z-1/6 '
	 '-y-1/3, -x+1/3, z-1/6 '
	 '-y-1/3, x-y+1/3, z+1/3 '
	 'y-1/3, -x+y+1/3, -z+1/3 '
	 'y-1/3, x+1/3, -z-1/6 '
	 'x-y-1/3, -y+1/3, -z-1/6 '
	 'x-y-1/3, x+1/3, -z+1/3 '
	 '-x-1/3, -x+y+1/3, -z-1/6 '
	 'x-1/3, x-y+1/3, z-1/6 '
	 'x+1/3, y-1/3, z-1/3 '
	 '-x+1/3, -y-1/3, -z-1/3 '
	 '-x+y+1/3, -x-1/3, z-1/3 '
	 '-x+y+1/3, y-1/3, z+1/6 '
	 '-y+1/3, -x-1/3, z+1/6 '
	 '-y+1/3, x-y-1/3, z-1/3 '
	 'y+1/3, -x+y-1/3, -z-1/3 '
	 'y+1/3, x-1/3, -z+1/6 '
	 'x-y+1/3, -y-1/3, -z+1/6 '
	 'x-y+1/3, x-1/3, -z-1/3 '
	 '-x+1/3, -x+y-1/3, -z+1/6 '
	 'x+1/3, x-y-1/3, z+1/6 '
loop_
_atom_site_label
_atom_site_type_symbol
_atom_site_site_symmetry_multiplicity
_atom_site_fract_x
_atom_site_fract_y
_atom_site_fract_z
_atom_site_occupancy
_atom_site_B_iso_or_equiv
Al1 Al+3  12 0 0 0.148 1 0.332383
O1 O-2  18 0.306 0 0.25 1 0.332383

data_phase_Si_2
_pd_block_id Si_2
_pd_block_diffractogram_id pattern_2

_pd_phase_name Si_2
_cell_length_a 5.431644
_cell_length_b 5.431644
_cell_length_c 5.431644
_cell_angle_alpha 90
_cell_angle_beta 90
_cell_angle_gamma 90
_cell_volume 160.2484
_symmetry_space_group_name_H-M Fd-3mS
loop_
	_symmetry_equiv_pos_as_xyz
	 'x, y, z '
	 '-x, z+1/2, -y+1/2 '
	 '-x+1/4, -y+1/4, -z+1/4 '
	 '-x+1/4, -z+1/4, -y+1/4 '
	 '-x+1/2, -z, y+1/2 '
	 '-x+1/2, y+1/2, -z '
	 '-x-1/4, z-1/4, y+1/4 '
	 '-x-1/4, y+1/4, z-1/4 '
	 '-y, -z+1/2, x+1/2 '
	 '-y, x+1/2, -z+1/2 '
	 '-y+1/4, -x+1/4, -z+1/4 '
	 '-y+1/4, -z+1/4, -x+1/4 '
	 '-y+1/2, -x, z+1/2 '
	 '-y+1/2, z+1/2, -x '
	 '-y-1/4, z+1/4, x-1/4 '
	 '-y-1/4, x-1/4, z+1/4 '
	 '-z, -x+1/2, y+1/2 '
	 '-z, y+1/2, -x+1/2 '
	 '-z+1/4, -x+1/4, -y+1/4 '
	 '-z+1/4, -y+1/4, -x+1/4 '
	 '-z+1/2, -y, x+1/2 '
	 '-z+1/2, x+1/2, -y '
	 '-z-1/4, y-1/4, x+1/4 '
	 '-z-1/4, x+1/4, y-1/4 '
	 'z, y, x '
	 'z, x, y '
	 'z+1/4, -y-1/4, x-1/4 '
	 'z+1/4, x-1/4, -y-1/4 '
	 'z+1/2, -x, -y+1/2 '
	 'z+1/2, -y+1/2, -x '
	 'z-1/4, -x-1/4, y+1/4 '
	 'z-1/4, y+1/4, -x-1/4 '
	 'y, z, x '
	 'y, x, z '
	 'y+1/4, -x-1/4, z-1/4 '
	 'y+1/4, z-1/4, -x-1/4 '
	 'y+1/2, -x+1/2, -z '
	 'y+1/2, -z, -x+1/2 '
	 'y-1/4, -z-1/4, x+1/4 '
	 'y-1/4, x+1/4, -z-1/4 '
	 'x, z, y '
	 '-x, -y+1/2, z+1/2 '
	 'x+1/4, -z-1/4, y-1/4 '
	 'x+1/4, y-1/4, -z-1/4 '
	 'x+1/2, -y, -z+1/2 '
	 'x+1/2, -z+1/2, -y '
	 'x-1/4, -y-1/4, z+1/4 '
	 'x-1/4, z+1/4, -y-1/4 '
	 'x+1/2, y+1/2, z '
	 '-x+1/2, z, -y+1/2 '
	 '-x-1/4, -y-1/4, -z+1/4 '
	 '-x-1/4, -z-1/4, -y+1/4 '
	 '-x, -z+1/2, y+1/2 '
	 '-x, y, -z '
	 '-x+1/4, z+1/4, y+1/4 '
	 '-x+1/4, y-1/4, z-1/4 '
	 '-y+1/2, -z, x+1/2 '
	 '-y+1/2, x, -z+1/2 '
	 '-y-1/4, -x-1/4, -z+1/4 '
	 '-y-1/4, -z-1/4, -x+1/4 '
	 '-y, -x+1/2, z+1/2 '
	 '-y, z, -x '
	 '-y+1/4, z-1/4, x-1/4 '
	 '-y+1/4, x+1/4, z+1/4 '
	 '-z+1/2, -x, y+1/2 '
	 '-z+1/2, y, -x+1/2 '
	 '-z-1/4, -x-1/4, -y+1/4 '
	 '-z-1/4, -y-1/4, -x+1/4 '
	 '-z, -y+1/2, x+1/2 '
	 '-z, x, -y '
	 '-z+1/4, y+1/4, x+1/4 '
	 '-z+1/4, x-1/4, y-1/4 '
	 'z+1/2, y+1/2, x '
	 'z+1/2, x+1/2, y '
	 'z-1/4, -y+1/4, x-1/4 '
	 'z-1/4, x+1/4, -y-1/4 '
	 'z, -x+1/2, -y+1/2 '
	 'z, -y, -x '
	 'z+1/4, -x+1/4, y+1/4 '
	 'z+1/4, y-1/4, -x-1/4 '
	 'y+1/2, z+1/2, x '
	 'y+1/2, x+1/2, z '
	 'y-1/4, -x+1/4, z-1/4 '
	 'y-1/4, z+1/4, -x-1/4 '
	 'y, -x, -z '
	 'y, -z+1/2, -x+1/2 '
	 'y+1/4, -z+1/4, x+1/4 '
	 'y+1/4, x-1/4, -z-1/4 '
	 'x+1/2, z+1/2, y '
	 '-x+1/2, -y, z+1/2 '
	 'x-1/4, -z+1/4, y-1/4 '
	 'x-1/4, y+1/4, -z-1/4 '
	 'x, -y+1/2, -z+1/2 '
	 'x, -z, -y '
	 'x+1/4, -y+1/4, z+1/4 '
	 'x+1/4, z-1/4, -y-1/4 '
	 'x+1/2, y, z+1/2 '
	 '-x+1/2, z+1/2, -y '
	 '-x-1/4, -y+1/4, -z-1/4 '
	 '-x-1/4, -z+1/4, -y-1/4 '
	 '-x, -z, y '
	 '-x, y+1/2, -z+1/2 '
	 '-x+1/4, z-1/4, y-1/4 '
	 '-x+1/4, y+1/4, z+1/4 '
	 '-y+1/2, -z+1/2, x '
	 '-y+1/2, x+1/2, -z '
	 '-y-1/4, -x+1/4, -z-1/4 '
	 '-y-1/4, -z+1/4, -x-1/4 '
	 '-y, -x, z '
	 '-y, z+1/2, -x+1/2 '
	 '-y+1/4, z+1/4, x+1/4 '
	 '-y+1/4, x-1/4, z-1/4 '
	 '-z+1/2, -x+1/2, y '
	 '-z+1/2, y+1/2, -x '
	 '-z-1/4, -x+1/4, -y-1/4 '
	 '-z-1/4, -y+1/4, -x-1/4 '
	 '-z, -y, x '
	 '-z, x+1/2, -y+1/2 '
	 '-z+1/4, y-1/4, x-1/4 '
	 '-z+1/4, x+1/4, y+1/4 '
	 'z+1/2, y, x+1/2 '
	 'z+1/2, x, y+1/2 '
	 'z-1/4, -y-1/4, x+1/4 '
	 'z-1/4, x-1/4, -y+1/4 '
	 'z, -x, -y '
	 'z, -y+1/2, -x+1/2 '
	 'z+1/4, -x-1/4, y-1/4 '
	 'z+1/4, y+1/4, -x+1/4 '
	 'y+1/2, z, x+1/2 '
	 'y+1/2, x, z+1/2 '
	 'y-1/4, -x-1/4, z+1/4 '
	 'y-1/4, z-1/4, -x+1/4 '
	 'y, -x+1/2, -z+1/2 '
	 'y, -z, -x '
	 'y+1/4, -z-1/4, x-1/4 '
	 'y+1/4, x+1/4, -z+1/4 '
	 'x+1/2, z, y+1/2 '
	 '-x+1/2, -y+1/2, z '
	 'x-1/4, -z-1/4, y+1/4 '
	 'x-1/4, y-1/4, -z+1/4 '
	 'x, -y, -z '
	 'x, -z+1/2, -y+1/2 '
	 'x+1/4, -y-1/4, z-1/4 '
	 'x+1/4, z+1/4, -y+1/4 '
	 'x, y+1/2, z+1/2 '
	 '-x, z, -y '
	 '-x+1/4, -y-1/4, -z-1/4 '
	 '-x+1/4, -z-1/4, -y-1/4 '
	 '-x+1/2, -z+1/2, y '
	 '-x+1/2, y, -z+1/2 '
	 '-x-1/4, z+1/4, y-1/4 '
	 '-x-1/4, y-1/4, z+1/4 '
	 '-y, -z, x '
	 '-y, x, -z '
	 '-y+1/4, -x-1/4, -z-1/4 '
	 '-y+1/4, -z-1/4, -x-1/4 '
	 '-y+1/2, -x+1/2, z '
	 '-y+1/2, z, -x+1/2 '
	 '-y-1/4, z-1/4, x+1/4 '
	 '-y-1/4, x+1/4, z-1/4 '
	 '-z, -x, y '
	 '-z, y, -x '
	 '-z+1/4, -x-1/4, -y-1/4 '
	 '-z+1/4, -y-1/4, -x-1/4 '
	 '-z+1/2, -y+1/2, x '
	 '-z+1/2, x, -y+1/2 '
	 '-z-1/4, y+1/4, x-1/4 '
	 '-z-1/4, x-1/4, y+1/4 '
	 'z, y+1/2, x+1/2 '
	 'z, x+1/2, y+1/2 '
	 'z+1/4, -y+1/4, x+1/4 '
	 'z+1/4, x+1/4, -y+1/4 '
	 'z+1/2, -x+1/2, -y '
	 'z+1/2, -y, -x+1/2 '
	 'z-1/4, -x+1/4, y-1/4 '
	 'z-1/4, y-1/4, -x+1/4 '
	 'y, z+1/2, x+1/2 '
	 'y, x+1/2, z+1/2 '
	 'y+1/4, -x+1/4, z+1/4 '
	 'y+1/4, z+1/4, -x+1/4 '
	 'y+1/2, -x, -z+1/2 '
	 'y+1/2, -z+1/2, -x '
	 'y-1/4, -z+1/4, x-1/4 '
	 'y-1/4, x-1/4, -z+1/4 '
	 'x, z+1/2, y+1/2 '
	 '-x, -y, z '
	 'x+1/4, -z+1/4, y+1/4 '
	 'x+1/4, y+1/4, -z+1/4 '
	 'x+1/2, -y+1/2, -z '
	 'x+1/2, -z, -y+1/2 '
	 'x-1/4, -y+1/4, z-1/4 '
	 'x-1/4, z-1/4, -y+1/4 '
loop_
_atom_site_label
_atom_site_type_symbol
_atom_site_site_symmetry_multiplicity
_atom_site_fract_x
_atom_site_fract_y
_atom_site_fract_z
_atom_site_occupancy
_atom_site_B_iso_or_equiv
Si1 Si   8 0 0 0 1 0.4212054

data_phase_Al2O3_3
_pd_block_id Al2O3_3
_pd_block_diffractogram_id pattern_3

_pd_phase_name Al2O3_3
_cell_length_a 4.760899
_cell_length_b 4.760899
_cell_length_c 12.99743
_cell_angle_alpha 90
_cell_angle_beta 90
_cell_angle_gamma 120
_cell_volume 255.1327
_symmetry_space_group_name_H-M R-3cH
loop_
	_symmetry_equiv_pos_as_xyz
	 'x, y, z '
	 '-x, -y, -z '
	 '-x+y, -x, z '
	 '-x+y, y, z+1/2 '
	 '-y, -x, z+1/2 '
	 '-y, x-y, z '
	 'y, -x+y, -z '
	 'y, x, -z+1/2 '
	 'x-y, -y, -z+1/2 '
	 'x-y, x, -z '
	 '-x, -x+y, -z+1/2 '
	 'x, x-y, z+1/2 '
	 'x-1/3, y+1/3, z+1/3 '
	 '-x-1/3, -y+1/3, -z+1/3 '
	 '-x+y-1/3, -x+1/3, z+1/3 '
	 '-x+y-1/3, y+1/3, z-1/6 '
	 '-y-1/3, -x+1/3, z-1/6 '
	 '-y-1/3, x-y+1/3, z+1/3 '
	 'y-1/3, -x+y+1/3, -z+1/3 '
	 'y-1/3, x+1/3, -z-1/6 '
	 'x-y-1/3, -y+1/3, -z-1/6 '
	 'x-y-1/3, x+1/3, -z+1/3 '
	 '-x-1/3, -x+y+1/3, -z-1/6 '
	 'x-1/3, x-y+1/3, z-1/6 '
	 'x+1/3, y-1/3, z-1/3 '
	 '-x+1/3, -y-1/3, -z-1/3 '
	 '-x+y+1/3, -x-1/3, z-1/3 '
	 '-x+y+1/3, y-1/3, z+1/6 '
	 '-y+1/3, -x-1/3, z+1/6 '
	 '-y+1/3, x-y-1/3, z-1/3 '
	 'y+1/3, -x+y-1/3, -z-1/3 '
	 'y+1/3, x-1/3, -z+1/6 '
	 'x-y+1/3, -y-1/3, -z+1/6 '
	 'x-y+1/3, x-1/3, -z-1/3 '
	 '-x+1/3, -x+y-1/3, -z+1/6 '
	 'x+1/3, x-y-1/3, z+1/6 '
loop_
_atom_site_label
_atom_site_type_symbol
_atom_site_site_symmetry_multiplicity
_atom_site_fract_x
_atom_site_fract_y
_atom_site_fract_z
_atom_site_occupancy
_atom_site_B_iso_or_equiv
Al1 Al+3  12 0 0 0.148 1 0.3529591
O1 O-2  18 0.306 0 0.25 1 0.3529591

data_phase_Si_3
_pd_block_id Si_3
_pd_block_diffractogram_id pattern_3

_pd_phase_name Si_3
_cell_length_a 5.431971
_cell_length_b 5.431971
_cell_length_c 5.431971
_cell_angle_alpha 90
_cell_angle_beta 90
_cell_angle_gamma 90
_cell_volume 160.2775
_symmetry_space_group_name_H-M Fd-3mS
loop_
	_symmetry_equiv_pos_as_xyz
	 'x, y, z '
	 '-x, z+1/2, -y+1/2 '
	 '-x+1/4, -y+1/4, -z+1/4 '
	 '-x+1/4, -z+1/4, -y+1/4 '
	 '-x+1/2, -z, y+1/2 '
	 '-x+1/2, y+1/2, -z '
	 '-x-1/4, z-1/4, y+1/4 '
	 '-x-1/4, y+1/4, z-1/4 '
	 '-y, -z+1/2, x+1/2 '
	 '-y, x+1/2, -z+1/2 '
	 '-y+1/4, -x+1/4, -z+1/4 '
	 '-y+1/4, -z+1/4, -x+1/4 '
	 '-y+1/2, -x, z+1/2 '
	 '-y+1/2, z+1/2, -x '
	 '-y-1/4, z+1/4, x-1/4 '
	 '-y-1/4, x-1/4, z+1/4 '
	 '-z, -x+1/2, y+1/2 '
	 '-z, y+1/2, -x+1/2 '
	 '-z+1/4, -x+1/4, -y+1/4 '
	 '-z+1/4, -y+1/4, -x+1/4 '
	 '-z+1/2, -y, x+1/2 '
	 '-z+1/2, x+1/2, -y '
	 '-z-1/4, y-1/4, x+1/4 '
	 '-z-1/4, x+1/4, y-1/4 '
	 'z, y, x '
	 'z, x, y '
	 'z+1/4, -y-1/4, x-1/4 '
	 'z+1/4, x-1/4, -y-1/4 '
	 'z+1/2, -x, -y+1/2 '
	 'z+1/2, -y+1/2, -x '
	 'z-1/4, -x-1/4, y+1/4 '
	 'z-1/4, y+1/4, -x-1/4 '
	 'y, z, x '
	 'y, x, z '
	 'y+1/4, -x-1/4, z-1/4 '
	 'y+1/4, z-1/4, -x-1/4 '
	 'y+1/2, -x+1/2, -z '
	 'y+1/2, -z, -x+1/2 '
	 'y-1/4, -z-1/4, x+1/4 '
	 'y-1/4, x+1/4, -z-1/4 '
	 'x, z, y '
	 '-x, -y+1/2, z+1/2 '
	 'x+1/4, -z-1/4, y-1/4 '
	 'x+1/4, y-1/4, -z-1/4 '
	 'x+1/2, -y, -z+1/2 '
	 'x+1/2, -z+1/2, -y '
	 'x-1/4, -y-1/4, z+1/4 '
	 'x-1/4, z+1/4, -y-1/4 '
	 'x+1/2, y+1/2, z '
	 '-x+1/2, z, -y+1/2 '
	 '-x-1/4, -y-1/4, -z+1/4 '
	 '-x-1/4, -z-1/4, -y+1/4 '
	 '-x, -z+1/2, y+1/2 '
	 '-x, y, -z '
	 '-x+1/4, z+1/4, y+1/4 '
	 '-x+1/4, y-1/4, z-1/4 '
	 '-y+1/2, -z, x+1/2 '
	 '-y+1/2, x, -z+1/2 '
	 '-y-1/4, -x-1/4, -z+1/4 '
	 '-y-1/4, -z-1/4, -x+1/4 '
	 '-y, -x+1/2, z+1/2 '
	 '-y, z, -x '
	 '-y+1/4, z-1/4, x-1/4 '
	 '-y+1/4, x+1/4, z+1/4 '
	 '-z+1/2, -x, y+1/2 '
	 '-z+1/2, y, -x+1/2 '
	 '-z-1/4, -x-1/4, -y+1/4 '
	 '-z-1/4, -y-1/4, -x+1/4 '
	 '-z, -y+1/2, x+1/2 '
	 '-z, x, -y '
	 '-z+1/4, y+1/4, x+1/4 '
	 '-z+1/4, x-1/4, y-1/4 '
	 'z+1/2, y+1/2, x '
	 'z+1/2, x+1/2, y '
	 'z-1/4, -y+1/4, x-1/4 '
	 'z-1/4, x+1/4, -y-1/4 '
	 'z, -x+1/2, -y+1/2 '
	 'z, -y, -x '
	 'z+1/4, -x+1/4, y+1/4 '
	 'z+1/4, y-1/4, -x-1/4 '
	 'y+1/2, z+1/2, x '
	 'y+1/2, x+1/2, z '
	 'y-1/4, -x+1/4, z-1/4 '
	 'y-1/4, z+1/4, -x-1/4 '
	 'y, -x, -z '
	 'y, -z+1/2, -x+1/2 '
	 'y+1/4, -z+1/4, x+1/4 '
	 'y+1/4, x-1/4, -z-1/4 '
	 'x+1/2, z+1/2, y '
	 '-x+1/2, -y, z+1/2 '
	 'x-1/4, -z+1/4, y-1/4 '
	 'x-1/4, y+1/4, -z-1/4 '
	 'x, -y+1/2, -z+1/2 '
	 'x, -z, -y '
	 'x+1/4, -y+1/4, z+1/4 '
	 'x+1/4, z-1/4, -y-1/4 '
	 'x+1/2, y, z+1/2 '
	 '-x+1/2, z+1/2, -y '
	 '-x-1/4, -y+1/4, -z-1/4 '
	 '-x-1/4, -z+1/4, -y-1/4 '
	 '-x, -z, y '
	 '-x, y+1/2, -z+1/2 '
	 '-x+1/4, z-1/4, y-1/4 '
	 '-x+1/4, y+1/4, z+1/4 '
	 '-y+1/2, -z+1/2, x '
	 '-y+1/2, x+1/2, -z '
	 '-y-1/4, -x+1/4, -z-1/4 '
	 '-y-1/4, -z+1/4, -x-1/4 '
	 '-y, -x, z '
	 '-y, z+1/2, -x+1/2 '
	 '-y+1/4, z+1/4, x+1/4 '
	 '-y+1/4, x-1/4, z-1/4 '
	 '-z+1/2, -x+1/2, y '
	 '-z+1/2, y+1/2, -x '
	 '-z-1/4, -x+1/4, -y-1/4 '
	 '-z-1/4, -y+1/4, -x-1/4 '
	 '-z, -y, x '
	 '-z, x+1/2, -y+1/2 '
	 '-z+1/4, y-1/4, x-1/4 '
	 '-z+1/4, x+1/4, y+1/4 '
	 'z+1/2, y, x+1/2 '
	 'z+1/2, x, y+1/2 '
	 'z-1/4, -y-1/4, x+1/4 '
	 'z-1/4, x-1/4, -y+1/4 '
	 'z, -x, -y '
	 'z, -y+1/2, -x+1/2 '
	 'z+1/4, -x-1/4, y-1/4 '
	 'z+1/4, y+1/4, -x+1/4 '
	 'y+1/2, z, x+1/2 '
	 'y+1/2, x, z+1/2 '
	 'y-1/4, -x-1/4, z+1/4 '
	 'y-1/4, z-1/4, -x+1/4 '
	 'y, -x+1/2, -z+1/2 '
	 'y, -z, -x '
	 'y+1/4, -z-1/4, x-1/4 '
	 'y+1/4, x+1/4, -z+1/4 '
	 'x+1/2, z, y+1/2 '
	 '-x+1/2, -y+1/2, z '
	 'x-1/4, -z-1/4, y+1/4 '
	 'x-1/4, y-1/4, -z+1/4 '
	 'x, -y, -z '
	 'x, -z+1/2, -y+1/2 '
	 'x+1/4, -y-1/4, z-1/4 '
	 'x+1/4, z+1/4, -y+1/4 '
	 'x, y+1/2, z+1/2 '
	 '-x, z, -y '
	 '-x+1/4, -y-1/4, -z-1/4 '
	 '-x+1/4, -z-1/4, -y-1/4 '
	 '-x+1/2, -z+1/2, y '
	 '-x+1/2, y, -z+1/2 '
	 '-x-1/4, z+1/4, y-1/4 '
	 '-x-1/4, y-1/4, z+1/4 '
	 '-y, -z, x '
	 '-y, x, -z '
	 '-y+1/4, -x-1/4, -z-1/4 '
	 '-y+1/4, -z-1/4, -x-1/4 '
	 '-y+1/2, -x+1/2, z '
	 '-y+1/2, z, -x+1/2 '
	 '-y-1/4, z-1/4, x+1/4 '
	 '-y-1/4, x+1/4, z-1/4 '
	 '-z, -x, y '
	 '-z, y, -x '
	 '-z+1/4, -x-1/4, -y-1/4 '
	 '-z+1/4, -y-1/4, -x-1/4 '
	 '-z+1/2, -y+1/2, x '
	 '-z+1/2, x, -y+1/2 '
	 '-z-1/4, y+1/4, x-1/4 '
	 '-z-1/4, x-1/4, y+1/4 '
	 'z, y+1/2, x+1/2 '
	 'z, x+1/2, y+1/2 '
	 'z+1/4, -y+1/4, x+1/4 '
	 'z+1/4, x+1/4, -y+1/4 '
	 'z+1/2, -x+1/2, -y '
	 'z+1/2, -y, -x+1/2 '
	 'z-1/4, -x+1/4, y-1/4 '
	 'z-1/4, y-1/4, -x+1/4 '
	 'y, z+1/2, x+1/2 '
	 'y, x+1/2, z+1/2 '
	 'y+1/4, -x+1/4, z+1/4 '
	 'y+1/4, z+1/4, -x+1/4 '
	 'y+1/2, -x, -z+1/2 '
	 'y+1/2, -z+1/2, -x '
	 'y-1/4, -z+1/4, x-1/4 '
	 'y-1/4, x-1/4, -z+1/4 '
	 'x, z+1/2, y+1/2 '
	 '-x, -y, z '
	 'x+1/4, -z+1/4, y+1/4 '
	 'x+1/4, y+1/4, -z+1/4 '
	 'x+1/2, -y+1/2, -z '
	 'x+1/2, -z, -y+1/2 '
	 'x-1/4, -y+1/4, z-1/4 '
	 'x-1/4, z-1/4, -y+1/4 '
loop_
_atom_site_label
_atom_site_type_symbol
_atom_site_site_symmetry_multiplicity
_atom_site_fract_x
_atom_site_fract_y
_atom_site_fract_z
_atom_site_occupancy
_atom_site_B_iso_or_equiv
Si1 Si   8 0 0 0 1 0.4782511

data_phase_Al2O3_4
_pd_block_id Al2O3_4
_pd_block_diffractogram_id pattern_4

_pd_phase_name Al2O3_4
_cell_length_a 4.761482
_cell_length_b 4.761482
_cell_length_c 12.99914
_cell_angle_alpha 90
_cell_angle_beta 90
_cell_angle_gamma 120
_cell_volume 255.2287
_symmetry_space_group_name_H-M R-3cH
loop_
	_symmetry_equiv_pos_as_xyz
	 'x, y, z '
	 '-x, -y, -z '
	 '-x+y, -x, z '
	 '-x+y, y, z+1/2 '
	 '-y, -x, z+1/2 '
	 '-y, x-y, z '
	 'y, -x+y, -z '
	 'y, x, -z+1/2 '
	 'x-y, -y, -z+1/2 '
	 'x-y, x, -z '
	 '-x, -x+y, -z+1/2 '
	 'x, x-y, z+1/2 '
	 'x-1/3, y+1/3, z+1/3 '
	 '-x-1/3, -y+1/3, -z+1/3 '
	 '-x+y-1/3, -x+1/3, z+1/3 '
	 '-x+y-1/3, y+1/3, z-1/6 '
	 '-y-1/3, -x+1/3, z-1/6 '
	 '-y-1/3, x-y+1/3, z+1/3 '
	 'y-1/3, -x+y+1/3, -z+1/3 '
	 'y-1/3, x+1/3, -z-1/6 '
	 'x-y-1/3, -y+1/3, -z-1/6 '
	 'x-y-1/3, x+1/3, -z+1/3 '
	 '-x-1/3, -x+y+1/3, -z-1/6 '
	 'x-1/3, x-y+1/3, z-1/6 '
	 'x+1/3, y-1/3, z-1/3 '
	 '-x+1/3, -y-1/3, -z-1/3 '
	 '-x+y+1/3, -x-1/3, z-1/3 '
	 '-x+y+1/3, y-1/3, z+1/6 '
	 '-y+1/3, -x-1/3, z+1/6 '
	 '-y+1/3, x-y-1/3, z-1/3 '
	 'y+1/3, -x+y-1/3, -z-1/3 '
	 'y+1/3, x-1/3, -z+1/6 '
	 'x-y+1/3, -y-1/3, -z+1/6 '
	 'x-y+1/3, x-1/3, -z-1/3 '
	 '-x+1/3, -x+y-1/3, -z+1/6 '
	 'x+1/3, x-y-1/3, z+1/6 '
loop_
_atom_site_label
_atom_site_type_symbol
_atom_site_site_symmetry_multiplicity
_atom_site_fract_x
_atom_site_fract_y
_atom_site_fract_z
_atom_site_occupancy
_atom_site_B_iso_or_equiv
Al1 Al+3  12 0 0 0.148 1 0.3807995
O1 O-2  18 0.306 0 0.25 1 0.3807995

data_phase_Si_4
_pd_block_id Si_4
_pd_block_diffractogram_id pattern_4

_pd_phase_name Si_4
_cell_length_a 5.432321
_cell_length_b 5.432321
_cell_length_c 5.432321
_cell_angle_alpha 90
_cell_angle_beta 90
_cell_angle_gamma 90
_cell_volume 160.3084
_symmetry_space_group_name_H-M Fd-3mS
loop_
	_symmetry_equiv_pos_as_xyz
	 'x, y, z '
	 '-x, z+1/2, -y+1/2 '
	 '-x+1/4, -y+1/4, -z+1/4 '
	 '-x+1/4, -z+1/4, -y+1/4 '
	 '-x+1/2, -z, y+1/2 '
	 '-x+1/2, y+1/2, -z '
	 '-x-1/4, z-1/4, y+1/4 '
	 '-x-1/4, y+1/4, z-1/4 '
	 '-y, -z+1/2, x+1/2 '
	 '-y, x+1/2, -z+1/2 '
	 '-y+1/4, -x+1/4, -z+1/4 '
	 '-y+1/4, -z+1/4, -x+1/4 '
	 '-y+1/2, -x, z+1/2 '
	 '-y+1/2, z+1/2, -x '
	 '-y-1/4, z+1/4, x-1/4 '
	 '-y-1/4, x-1/4, z+1/4 '
	 '-z, -x+1/2, y+1/2 '
	 '-z, y+1/2, -x+1/2 '
	 '-z+1/4, -x+1/4, -y+1/4 '
	 '-z+1/4, -y+1/4, -x+1/4 '
	 '-z+1/2, -y, x+1/2 '
	 '-z+1/2, x+1/2, -y '
	 '-z-1/4, y-1/4, x+1/4 '
	 '-z-1/4, x+1/4, y-1/4 '
	 'z, y, x '
	 'z, x, y '
	 'z+1/4, -y-1/4, x-1/4 '
	 'z+1/4, x-1/4, -y-1/4 '
	 'z+1/2, -x, -y+1/2 '
	 'z+1/2, -y+1/2, -x '
	 'z-1/4, -x-1/4, y+1/4 '
	 'z-1/4, y+1/4, -x-1/4 '
	 'y, z, x '
	 'y, x, z '
	 'y+1/4, -x-1/4, z-1/4 '
	 'y+1/4, z-1/4, -x-1/4 '
	 'y+1/2, -x+1/2, -z '
	 'y+1/2, -z, -x+1/2 '
	 'y-1/4, -z-1/4, x+1/4 '
	 'y-1/4, x+1/4, -z-1/4 '
	 'x, z, y '
	 '-x, -y+1/2, z+1/2 '
	 'x+1/4, -z-1/4, y-1/4 '
	 'x+1/4, y-1/4, -z-1/4 '
	 'x+1/2, -y, -z+1/2 '
	 'x+1/2, -z+1/2, -y '
	 'x-1/4, -y-1/4, z+1/4 '
	 'x-1/4, z+1/4, -y-1/4 '
	 'x+1/2, y+1/2, z '
	 '-x+1/2, z, -y+1/2 '
	 '-x-1/4, -y-1/4, -z+1/4 '
	 '-x-1/4, -z-1/4, -y+1/4 '
	 '-x, -z+1/2, y+1/2 '
	 '-x, y, -z '
	 '-x+1/4, z+1/4, y+1/4 '
	 '-x+1/4, y-1/4, z-1/4 '
	 '-y+1/2, -z, x+1/2 '
	 '-y+1/2, x, -z+1/2 '
	 '-y-1/4, -x-1/4, -z+1/4 '
	 '-y-1/4, -z-1/4, -x+1/4 '
	 '-y, -x+1/2, z+1/2 '
	 '-y, z, -x '
	 '-y+1/4, z-1/4, x-1/4 '
	 '-y+1/4, x+1/4, z+1/4 '
	 '-z+1/2, -x, y+1/2 '
	 '-z+1/2, y, -x+1/2 '
	 '-z-1/4, -x-1/4, -y+1/4 '
	 '-z-1/4, -y-1/4, -x+1/4 '
	 '-z, -y+1/2, x+1/2 '
	 '-z, x, -y '
	 '-z+1/4, y+1/4, x+1/4 '
	 '-z+1/4, x-1/4, y-1/4 '
	 'z+1/2, y+1/2, x '
	 'z+1/2, x+1/2, y '
	 'z-1/4, -y+1/4, x-1/4 '
	 'z-1/4, x+1/4, -y-1/4 '
	 'z, -x+1/2, -y+1/2 '
	 'z, -y, -x '
	 'z+1/4, -x+1/4, y+1/4 '
	 'z+1/4, y-1/4, -x-1/4 '
	 'y+1/2, z+1/2, x '
	 'y+1/2, x+1/2, z '
	 'y-1/4, -x+1/4, z-1/4 '
	 'y-1/4, z+1/4, -x-1/4 '
	 'y, -x, -z '
	 'y, -z+1/2, -x+1/2 '
	 'y+1/4, -z+1/4, x+1/4 '
	 'y+1/4, x-1/4, -z-1/4 '
	 'x+1/2, z+1/2, y '
	 '-x+1/2, -y, z+1/2 '
	 'x-1/4, -z+1/4, y-1/4 '
	 'x-1/4, y+1/4, -z-1/4 '
	 'x, -y+1/2, -z+1/2 '
	 'x, -z, -y '
	 'x+1/4, -y+1/4, z+1/4 '
	 'x+1/4, z-1/4, -y-1/4 '
	 'x+1/2, y, z+1/2 '
	 '-x+1/2, z+1/2, -y '
	 '-x-1/4, -y+1/4, -z-1/4 '
	 '-x-1/4, -z+1/4, -y-1/4 '
	 '-x, -z, y '
	 '-x, y+1/2, -z+1/2 '
	 '-x+1/4, z-1/4, y-1/4 '
	 '-x+1/4, y+1/4, z+1/4 '
	 '-y+1/2, -z+1/2, x '
	 '-y+1/2, x+1/2, -z '
	 '-y-1/4, -x+1/4, -z-1/4 '
	 '-y-1/4, -z+1/4, -x-1/4 '
	 '-y, -x, z '
	 '-y, z+1/2, -x+1/2 '
	 '-y+1/4, z+1/4, x+1/4 '
	 '-y+1/4, x-1/4, z-1/4 '
	 '-z+1/2, -x+1/2, y '
	 '-z+1/2, y+1/2, -x '
	 '-z-1/4, -x+1/4, -y-1/4 '
	 '-z-1/4, -y+1/4, -x-1/4 '
	 '-z, -y, x '
	 '-z, x+1/2, -y+1/2 '
	 '-z+1/4, y-1/4, x-1/4 '
	 '-z+1/4, x+1/4, y+1/4 '
	 'z+1/2, y, x+1/2 '
	 'z+1/2, x, y+1/2 '
	 'z-1/4, -y-1/4, x+1/4 '
	 'z-1/4, x-1/4, -y+1/4 '
	 'z, -x, -y '
	 'z, -y+1/2, -x+1/2 '
	 'z+1/4, -x-1/4, y-1/4 '
	 'z+1/4, y+1/4, -x+1/4 '
	 'y+1/2, z, x+1/2 '
	 'y+1/2, x, z+1/2 '
	 'y-1/4, -x-1/4, z+1/4 '
	 'y-1/4, z-1/4, -x+1/4 '
	 'y, -x+1/2, -z+1/2 '
	 'y, -z, -x '
	 'y+1/4, -z-1/4, x-1/4 '
	 'y+1/4, x+1/4, -z+1/4 '
	 'x+1/2, z, y+1/2 '
	 '-x+1/2, -y+1/2, z '
	 'x-1/4, -z-1/4, y+1/4 '
	 'x-1/4, y-1/4, -z+1/4 '
	 'x, -y, -z '
	 'x, -z+1/2, -y+1/2 '
	 'x+1/4, -y-1/4, z-1/4 '
	 'x+1/4, z+1/4, -y+1/4 '
	 'x, y+1/2, z+1/2 '
	 '-x, z, -y '
	 '-x+1/4, -y-1/4, -z-1/4 '
	 '-x+1/4, -z-1/4, -y-1/4 '
	 '-x+1/2, -z+1/2, y '
	 '-x+1/2, y, -z+1/2 '
	 '-x-1/4, z+1/4, y-1/4 '
	 '-x-1/4, y-1/4, z+1/4 '
	 '-y, -z, x '
	 '-y, x, -z '
	 '-y+1/4, -x-1/4, -z-1/4 '
	 '-y+1/4, -z-1/4, -x-1/4 '
	 '-y+1/2, -x+1/2, z '
	 '-y+1/2, z, -x+1/2 '
	 '-y-1/4, z-1/4, x+1/4 '
	 '-y-1/4, x+1/4, z-1/4 '
	 '-z, -x, y '
	 '-z, y, -x '
	 '-z+1/4, -x-1/4, -y-1/4 '
	 '-z+1/4, -y-1/4, -x-1/4 '
	 '-z+1/2, -y+1/2, x '
	 '-z+1/2, x, -y+1/2 '
	 '-z-1/4, y+1/4, x-1/4 '
	 '-z-1/4, x-1/4, y+1/4 '
	 'z, y+1/2, x+1/2 '
	 'z, x+1/2, y+1/2 '
	 'z+1/4, -y+1/4, x+1/4 '
	 'z+1/4, x+1/4, -y+1/4 '
	 'z+1/2, -x+1/2, -y '
	 'z+1/2, -y, -x+1/2 '
	 'z-1/4, -x+1/4, y-1/4 '
	 'z-1/4, y-1/4, -x+1/4 '
	 'y, z+1/2, x+1/2 '
	 'y, x+1/2, z+1/2 '
	 'y+1/4, -x+1/4, z+1/4 '
	 'y+1/4, z+1/4, -x+1/4 '
	 'y+1/2, -x, -z+1/2 '
	 'y+1/2, -z+1/2, -x '
	 'y-1/4, -z+1/4, x-1/4 '
	 'y-1/4, x-1/4, -z+1/4 '
	 'x, z+1/2, y+1/2 '
	 '-x, -y, z '
	 'x+1/4, -z+1/4, y+1/4 '
	 'x+1/4, y+1/4, -z+1/4 '
	 'x+1/2, -y+1/2, -z '
	 'x+1/2, -z, -y+1/2 '
	 'x-1/4, -y+1/4, z-1/4 '
	 'x-1/4, z-1/4, -y+1/4 '
loop_
_atom_site_label
_atom_site_type_symbol
_atom_site_site_symmetry_multiplicity
_atom_site_fract_x
_atom_site_fract_y
_atom_site_fract_z
_atom_site_occupancy
_atom_site_B_iso_or_equiv
Si1 Si   8 0 0 0 1 0.5048468

data_phase_Al2O3_0
_pd_block_id Al2O3_0
_pd_block_diffractogram_id pattern_0

_pd_phase_name Al2O3_0
_cell_length_a 4.75932
_cell_length_b 4.75932
_cell_length_c 12.99241
_cell_angle_alpha 90
_cell_angle_beta 90
_cell_angle_gamma 120
_cell_volume 254.8649
_symmetry_space_group_name_H-M R-3cH
loop_
	_symmetry_equiv_pos_as_xyz
	 'x, y, z '
	 '-x, -y, -z '
	 '-x+y, -x, z '
	 '-x+y, y, z+1/2 '
	 '-y, -x, z+1/2 '
	 '-y, x-y, z '
	 'y, -x+y, -z '
	 'y, x, -z+1/2 '
	 'x-y, -y, -z+1/2 '
	 'x-y, x, -z '
	 '-x, -x+y, -z+1/2 '
	 'x, x-y, z+1/2 '
	 'x-1/3, y+1/3, z+1/3 '
	 '-x-1/3, -y+1/3, -z+1/3 '
	 '-x+y-1/3, -x+1/3, z+1/3 '
	 '-x+y-1/3, y+1/3, z-1/6 '
	 '-y-1/3, -x+1/3, z-1/6 '
	 '-y-1/3, x-y+1/3, z+1/3 '
	 'y-1/3, -x+y+1/3, -z+1/3 '
	 'y-1/3, x+1/3, -z-1/6 '
	 'x-y-1/3, -y+1/3, -z-1/6 '
	 'x-y-1/3, x+1/3, -z+1/3 '
	 '-x-1/3, -x+y+1/3, -z-1/6 '
	 'x-1/3, x-y+1/3, z-1/6 '
	 'x+1/3, y-1/3, z-1/3 '
	 '-x+1/3, -y-1/3, -z-1/3 '
	 '-x+y+1/3, -x-1/3, z-1/3 '
	 '-x+y+1/3, y-1/3, z+1/6 '
	 '-y+1/3, -x-1/3, z+1/6 '
	 '-y+1/3, x-y-1/3, z-1/3 '
	 'y+1/3, -x+y-1/3, -z-1/3 '
	 'y+1/3, x-1/3, -z+1/6 '
	 'x-y+1/3, -y-1/3, -z+1/6 '
	 'x-y+1/3, x-1/3, -z-1/3 '
	 '-x+1/3, -x+y-1/3, -z+1/6 '
	 'x+1/3, x-y-1/3, z+1/6 '
loop_
_atom_site_label
_atom_site_type_symbol
_atom_site_site_symmetry_multiplicity
_atom_site_fract_x
_atom_site_fract_y
_atom_site_fract_z
_atom_site_occupancy
_atom_site_B_iso_or_equiv
Al1 Al+3  12 0 0 0.148 1 0.4183595
O1 O-2  18 0.306 0 0.25 1 0.4183595

data_phase_Si_0
_pd_block_id Si_0
_pd_block_diffractogram_id pattern_0

_pd_phase_name Si_0
_cell_length_a 5.431047
_cell_length_b 5.431047
_cell_length_c 5.431047
_cell_angle_alpha 90
_cell_angle_beta 90
_cell_angle_gamma 90
_cell_volume 160.1956
_symmetry_space_group_name_H-M Fd-3mS
loop_
	_symmetry_equiv_pos_as_xyz
	 'x, y, z '
	 '-x, z+1/2, -y+1/2 '
	 '-x+1/4, -y+1/4, -z+1/4 '
	 '-x+1/4, -z+1/4, -y+1/4 '
	 '-x+1/2, -z, y+1/2 '
	 '-x+1/2, y+1/2, -z '
	 '-x-1/4, z-1/4, y+1/4 '
	 '-x-1/4, y+1/4, z-1/4 '
	 '-y, -z+1/2, x+1/2 '
	 '-y, x+1/2, -z+1/2 '
	 '-y+1/4, -x+1/4, -z+1/4 '
	 '-y+1/4, -z+1/4, -x+1/4 '
	 '-y+1/2, -x, z+1/2 '
	 '-y+1/2, z+1/2, -x '
	 '-y-1/4, z+1/4, x-1/4 '
	 '-y-1/4, x-1/4, z+1/4 '
	 '-z, -x+1/2, y+1/2 '
	 '-z, y+1/2, -x+1/2 '
	 '-z+1/4, -x+1/4, -y+1/4 '
	 '-z+1/4, -y+1/4, -x+1/4 '
	 '-z+1/2, -y, x+1/2 '
	 '-z+1/2, x+1/2, -y '
	 '-z-1/4, y-1/4, x+1/4 '
	 '-z-1/4, x+1/4, y-1/4 '
	 'z, y, x '
	 'z, x, y '
	 'z+1/4, -y-1/4, x-1/4 '
	 'z+1/4, x-1/4, -y-1/4 '
	 'z+1/2, -x, -y+1/2 '
	 'z+1/2, -y+1/2, -x '
	 'z-1/4, -x-1/4, y+1/4 '
	 'z-1/4, y+1/4, -x-1/4 '
	 'y, z, x '
	 'y, x, z '
	 'y+1/4, -x-1/4, z-1/4 '
	 'y+1/4, z-1/4, -x-1/4 '
	 'y+1/2, -x+1/2, -z '
	 'y+1/2, -z, -x+1/2 '
	 'y-1/4, -z-1/4, x+1/4 '
	 'y-1/4, x+1/4, -z-1/4 '
	 'x, z, y '
	 '-x, -y+1/2, z+1/2 '
	 'x+1/4, -z-1/4, y-1/4 '
	 'x+1/4, y-1/4, -z-1/4 '
	 'x+1/2, -y, -z+1/2 '
	 'x+1/2, -z+1/2, -y '
	 'x-1/4, -y-1/4, z+1/4 '
	 'x-1/4, z+1/4, -y-1/4 '
	 'x+1/2, y+1/2, z '
	 '-x+1/2, z, -y+1/2 '
	 '-x-1/4, -y-1/4, -z+1/4 '
	 '-x-1/4, -z-1/4, -y+1/4 '
	 '-x, -z+1/2, y+1/2 '
	 '-x, y, -z '
	 '-x+1/4, z+1/4, y+1/4 '
	 '-x+1/4, y-1/4, z-1/4 '
	 '-y+1/2, -z, x+1/2 '
	 '-y+1/2, x, -z+1/2 '
	 '-y-1/4, -x-1/4, -z+1/4 '
	 '-y-1/4, -z-1/4, -x+1/4 '
	 '-y, -x+1/2, z+1/2 '
	 '-y, z, -x '
	 '-y+1/4, z-1/4, x-1/4 '
	 '-y+1/4, x+1/4, z+1/4 '
	 '-z+1/2, -x, y+1/2 '
	 '-z+1/2, y, -x+1/2 '
	 '-z-1/4, -x-1/4, -y+1/4 '
	 '-z-1/4, -y-1/4, -x+1/4 '
	 '-z, -y+1/2, x+1/2 '
	 '-z, x, -y '
	 '-z+1/4, y+1/4, x+1/4 '
	 '-z+1/4, x-1/4, y-1/4 '
	 'z+1/2, y+1/2, x '
	 'z+1/2, x+1/2, y '
	 'z-1/4, -y+1/4, x-1/4 '
	 'z-1/4, x+1/4, -y-1/4 '
	 'z, -x+1/2, -y+1/2 '
	 'z, -y, -x '
	 'z+1/4, -x+1/4, y+1/4 '
	 'z+1/4, y-1/4, -x-1/4 '
	 'y+1/2, z+1/2, x '
	 'y+1/2, x+1/2, z '
	 'y-1/4, -x+1/4, z-1/4 '
	 'y-1/4, z+1/4, -x-1/4 '
	 'y, -x, -z '
	 'y, -z+1/2, -x+1/2 '
	 'y+1/4, -z+1/4, x+1/4 '
	 'y+1/4, x-1/4, -z-1/4 '
	 'x+1/2, z+1/2, y '
	 '-x+1/2, -y, z+1/2 '
	 'x-1/4, -z+1/4, y-1/4 '
	 'x-1/4, y+1/4, -z-1/4 '
	 'x, -y+1/2, -z+1/2 '
	 'x, -z, -y '
	 'x+1/4, -y+1/4, z+1/4 '
	 'x+1/4, z-1/4, -y-1/4 '
	 'x+1/2, y, z+1/2 '
	 '-x+1/2, z+1/2, -y '
	 '-x-1/4, -y+1/4, -z-1/4 '
	 '-x-1/4, -z+1/4, -y-1/4 '
	 '-x, -z, y '
	 '-x, y+1/2, -z+1/2 '
	 '-x+1/4, z-1/4, y-1/4 '
	 '-x+1/4, y+1/4, z+1/4 '
	 '-y+1/2, -z+1/2, x '
	 '-y+1/2, x+1/2, -z '
	 '-y-1/4, -x+1/4, -z-1/4 '
	 '-y-1/4, -z+1/4, -x-1/4 '
	 '-y, -x, z '
	 '-y, z+1/2, -x+1/2 '
	 '-y+1/4, z+1/4, x+1/4 '
	 '-y+1/4, x-1/4, z-1/4 '
	 '-z+1/2, -x+1/2, y '
	 '-z+1/2, y+1/2, -x '
	 '-z-1/4, -x+1/4, -y-1/4 '
	 '-z-1/4, -y+1/4, -x-1/4 '
	 '-z, -y, x '
	 '-z, x+1/2, -y+1/2 '
	 '-z+1/4, y-1/4, x-1/4 '
	 '-z+1/4, x+1/4, y+1/4 '
	 'z+1/2, y, x+1/2 '
	 'z+1/2, x, y+1/2 '
	 'z-1/4, -y-1/4, x+1/4 '
	 'z-1/4, x-1/4, -y+1/4 '
	 'z, -x, -y '
	 'z, -y+1/2, -x+1/2 '
	 'z+1/4, -x-1/4, y-1/4 '
	 'z+1/4, y+1/4, -x+1/4 '
	 'y+1/2, z, x+1/2 '
	 'y+1/2, x, z+1/2 '
	 'y-1/4, -x-1/4, z+1/4 '
	 'y-1/4, z-1/4, -x+1/4 '
	 'y, -x+1/2, -z+1/2 '
	 'y, -z, -x '
	 'y+1/4, -z-1/4, x-1/4 '
	 'y+1/4, x+1/4, -z+1/4 '
	 'x+1/2, z, y+1/2 '
	 '-x+1/2, -y+1/2, z '
	 'x-1/4, -z-1/4, y+1/4 '
	 'x-1/4, y-1/4, -z+1/4 '
	 'x, -y, -z '
	 'x, -z+1/2, -y+1/2 '
	 'x+1/4, -y-1/4, z-1/4 '
	 'x+1/4, z+1/4, -y+1/4 '
	 'x, y+1/2, z+1/2 '
	 '-x, z, -y '
	 '-x+1/4, -y-1/4, -z-1/4 '
	 '-x+1/4, -z-1/4, -y-1/4 '
	 '-x+1/2, -z+1/2, y '
	 '-x+1/2, y, -z+1/2 '
	 '-x-1/4, z+1/4, y-1/4 '
	 '-x-1/4, y-1/4, z+1/4 '
	 '-y, -z, x '
	 '-y, x, -z '
	 '-y+1/4, -x-1/4, -z-1/4 '
	 '-y+1/4, -z-1/4, -x-1/4 '
	 '-y+1/2, -x+1/2, z '
	 '-y+1/2, z, -x+1/2 '
	 '-y-1/4, z-1/4, x+1/4 '
	 '-y-1/4, x+1/4, z-1/4 '
	 '-z, -x, y '
	 '-z, y, -x '
	 '-z+1/4, -x-1/4, -y-1/4 '
	 '-z+1/4, -y-1/4, -x-1/4 '
	 '-z+1/2, -y+1/2, x '
	 '-z+1/2, x, -y+1/2 '
	 '-z-1/4, y+1/4, x-1/4 '
	 '-z-1/4, x-1/4, y+1/4 '
	 'z, y+1/2, x+1/2 '
	 'z, x+1/2, y+1/2 '
	 'z+1/4, -y+1/4, x+1/4 '
	 'z+1/4, x+1/4, -y+1/4 '
	 'z+1/2, -x+1/2, -y '
	 'z+1/2, -y, -x+1/2 '
	 'z-1/4, -x+1/4, y-1/4 '
	 'z-1/4, y-1/4, -x+1/4 '
	 'y, z+1/2, x+1/2 '
	 'y, x+1/2, z+1/2 '
	 'y+1/4, -x+1/4, z+1/4 '
	 'y+1/4, z+1/4, -x+1/4 '
	 'y+1/2, -x, -z+1/2 '
	 'y+1/2, -z+1/2, -x '
	 'y-1/4, -z+1/4, x-1/4 '
	 'y-1/4, x-1/4, -z+1/4 '
	 'x, z+1/2, y+1/2 '
	 '-x, -y, z '
	 'x+1/4, -z+1/4, y+1/4 '
	 'x+1/4, y+1/4, -z+1/4 '
	 'x+1/2, -y+1/2, -z '
	 'x+1/2, -z, -y+1/2 '
	 'x-1/4, -y+1/4, z-1/4 '
	 'x-1/4, z-1/4, -y+1/4 '
loop_
_atom_site_label
_atom_site_type_symbol
_atom_site_site_symmetry_multiplicity
_atom_site_fract_x
_atom_site_fract_y
_atom_site_fract_z
_atom_site_occupancy
_atom_site_B_iso_or_equiv
Si1 Si   8 0 0 0 1 0.3783249

data_phase_Al2O3_1
_pd_block_id Al2O3_1
_pd_block_diffractogram_id pattern_1

_pd_phase_name Al2O3_1
_cell_length_a 4.75981
_cell_length_b 4.75981
_cell_length_c 12.99406
_cell_angle_alpha 90
_cell_angle_beta 90
_cell_angle_gamma 120
_cell_volume 254.9499
_symmetry_space_group_name_H-M R-3cH
loop_
	_symmetry_equiv_pos_as_xyz
	 'x, y, z '
	 '-x, -y, -z '
	 '-x+y, -x, z '
	 '-x+y, y, z+1/2 '
	 '-y, -x, z+1/2 '
	 '-y, x-y, z '
	 'y, -x+y, -z '
	 'y, x, -z+1/2 '
	 'x-y, -y, -z+1/2 '
	 'x-y, x, -z '
	 '-x, -x+y, -z+1/2 '
	 'x, x-y, z+1/2 '
	 'x-1/3, y+1/3, z+1/3 '
	 '-x-1/3, -y+1/3, -z+1/3 '
	 '-x+y-1/3, -x+1/3, z+1/3 '
	 '-x+y-1/3, y+1/3, z-1/6 '
	 '-y-1/3, -x+1/3, z-1/6 '
	 '-y-1/3, x-y+1/3, z+1/3 '
	 'y-1/3, -x+y+1/3, -z+1/3 '
	 'y-1/3, x+1/3, -z-1/6 '
	 'x-y-1/3, -y+1/3, -z-1/6 '
	 'x-y-1/3, x+1/3, -z+1/3 '
	 '-x-1/3, -x+y+1/3, -z-1/6 '
	 'x-1/3, x-y+1/3, z-1/6 '
	 'x+1/3, y-1/3, z-1/3 '
	 '-x+1/3, -y-1/3, -z-1/3 '
	 '-x+y+1/3, -x-1/3, z-1/3 '
	 '-x+y+1/3, y-1/3, z+1/6 '
	 '-y+1/3, -x-1/3, z+1/6 '
	 '-y+1/3, x-y-1/3, z-1/3 '
	 'y+1/3, -x+y-1/3, -z-1/3 '
	 'y+1/3, x-1/3, -z+1/6 '
	 'x-y+1/3, -y-1/3, -z+1/6 '
	 'x-y+1/3, x-1/3, -z-1/3 '
	 '-x+1/3, -x+y-1/3, -z+1/6 '
	 'x+1/3, x-y-1/3, z+1/6 '
loop_
_atom_site_label
_atom_site_type_symbol
_atom_site_site_symmetry_multiplicity
_atom_site_fract_x
_atom_site_fract_y
_atom_site_fract_z
_atom_site_occupancy
_atom_site_B_iso_or_equiv
Al1 Al+3  12 0 0 0.148 1 0.3500396
O1 O-2  18 0.306 0 0.25 1 0.3500396

data_phase_Si_1
_pd_block_id Si_1
_pd_block_diffractogram_id pattern_1

_pd_phase_name Si_1
_cell_length_a 5.431355
_cell_length_b 5.431355
_cell_length_c 5.431355
_cell_angle_alpha 90
_cell_angle_beta 90
_cell_angle_gamma 90
_cell_volume 160.2229
_symmetry_space_group_name_H-M Fd-3mS
loop_
	_symmetry_equiv_pos_as_xyz
	 'x, y, z '
	 '-x, z+1/2, -y+1/2 '
	 '-x+1/4, -y+1/4, -z+1/4 '
	 '-x+1/4, -z+1/4, -y+1/4 '
	 '-x+1/2, -z, y+1/2 '
	 '-x+1/2, y+1/2, -z '
	 '-x-1/4, z-1/4, y+1/4 '
	 '-x-1/4, y+1/4, z-1/4 '
	 '-y, -z+1/2, x+1/2 '
	 '-y, x+1/2, -z+1/2 '
	 '-y+1/4, -x+1/4, -z+1/4 '
	 '-y+1/4, -z+1/4, -x+1/4 '
	 '-y+1/2, -x, z+1/2 '
	 '-y+1/2, z+1/2, -x '
	 '-y-1/4, z+1/4, x-1/4 '
	 '-y-1/4, x-1/4, z+1/4 '
	 '-z, -x+1/2, y+1/2 '
	 '-z, y+1/2, -x+1/2 '
	 '-z+1/4, -x+1/4, -y+1/4 '
	 '-z+1/4, -y+1/4, -x+1/4 '
	 '-z+1/2, -y, x+1/2 '
	 '-z+1/2, x+1/2, -y '
	 '-z-1/4, y-1/4, x+1/4 '
	 '-z-1/4, x+1/4, y-1/4 '
	 'z, y, x '
	 'z, x, y '
	 'z+1/4, -y-1/4, x-1/4 '
	 'z+1/4, x-1/4, -y-1/4 '
	 'z+1/2, -x, -y+1/2 '
	 'z+1/2, -y+1/2, -x '
	 'z-1/4, -x-1/4, y+1/4 '
	 'z-1/4, y+1/4, -x-1/4 '
	 'y, z, x '
	 'y, x, z '
	 'y+1/4, -x-1/4, z-1/4 '
	 'y+1/4, z-1/4, -x-1/4 '
	 'y+1/2, -x+1/2, -z '
	 'y+1/2, -z, -x+1/2 '
	 'y-1/4, -z-1/4, x+1/4 '
	 'y-1/4, x+1/4, -z-1/4 '
	 'x, z, y '
	 '-x, -y+1/2, z+1/2 '
	 'x+1/4, -z-1/4, y-1/4 '
	 'x+1/4, y-1/4, -z-1/4 '
	 'x+1/2, -y, -z+1/2 '
	 'x+1/2, -z+1/2, -y '
	 'x-1/4, -y-1/4, z+1/4 '
	 'x-1/4, z+1/4, -y-1/4 '
	 'x+1/2, y+1/2, z '
	 '-x+1/2, z, -y+1/2 '
	 '-x-1/4, -y-1/4, -z+1/4 '
	 '-x-1/4, -z-1/4, -y+1/4 '
	 '-x, -z+1/2, y+1/2 '
	 '-x, y, -z '
	 '-x+1/4, z+1/4, y+1/4 '
	 '-x+1/4, y-1/4, z-1/4 '
	 '-y+1/2, -z, x+1/2 '
	 '-y+1/2, x, -z+1/2 '
	 '-y-1/4, -x-1/4, -z+1/4 '
	 '-y-1/4, -z-1/4, -x+1/4 '
	 '-y, -x+1/2, z+1/2 '
	 '-y, z, -x '
	 '-y+1/4, z-1/4, x-1/4 '
	 '-y+1/4, x+1/4, z+1/4 '
	 '-z+1/2, -x, y+1/2 '
	 '-z+1/2, y, -x+1/2 '
	 '-z-1/4, -x-1/4, -y+1/4 '
	 '-z-1/4, -y-1/4, -x+1/4 '
	 '-z, -y+1/2, x+1/2 '
	 '-z, x, -y '
	 '-z+1/4, y+1/4, x+1/4 '
	 '-z+1/4, x-1/4, y-1/4 '
	 'z+1/2, y+1/2, x '
	 'z+1/2, x+1/2, y '
	 'z-1/4, -y+1/4, x-1/4 '
	 'z-1/4, x+1/4, -y-1/4 '
	 'z, -x+1/2, -y+1/2 '
	 'z, -y, -x '
	 'z+1/4, -x+1/4, y+1/4 '
	 'z+1/4, y-1/4, -x-1/4 '
	 'y+1/2, z+1/2, x '
	 'y+1/2, x+1/2, z '
	 'y-1/4, -x+1/4, z-1/4 '
	 'y-1/4, z+1/4, -x-1/4 '
	 'y, -x, -z '
	 'y, -z+1/2, -x+1/2 '
	 'y+1/4, -z+1/4, x+1/4 '
	 'y+1/4, x-1/4, -z-1/4 '
	 'x+1/2, z+1/2, y '
	 '-x+1/2, -y, z+1/2 '
	 'x-1/4, -z+1/4, y-1/4 '
	 'x-1/4, y+1/4, -z-1/4 '
	 'x, -y+1/2, -z+1/2 '
	 'x, -z, -y '
	 'x+1/4, -y+1/4, z+1/4 '
	 'x+1/4, z-1/4, -y-1/4 '
	 'x+1/2, y, z+1/2 '
	 '-x+1/2, z+1/2, -y '
	 '-x-1/4, -y+1/4, -z-1/4 '
	 '-x-1/4, -z+1/4, -y-1/4 '
	 '-x, -z, y '
	 '-x, y+1/2, -z+1/2 '
	 '-x+1/4, z-1/4, y-1/4 '
	 '-x+1/4, y+1/4, z+1/4 '
	 '-y+1/2, -z+1/2, x '
	 '-y+1/2, x+1/2, -z '
	 '-y-1/4, -x+1/4, -z-1/4 '
	 '-y-1/4, -z+1/4, -x-1/4 '
	 '-y, -x, z '
	 '-y, z+1/2, -x+1/2 '
	 '-y+1/4, z+1/4, x+1/4 '
	 '-y+1/4, x-1/4, z-1/4 '
	 '-z+1/2, -x+1/2, y '
	 '-z+1/2, y+1/2, -x '
	 '-z-1/4, -x+1/4, -y-1/4 '
	 '-z-1/4, -y+1/4, -x-1/4 '
	 '-z, -y, x '
	 '-z, x+1/2, -y+1/2 '
	 '-z+1/4, y-1/4, x-1/4 '
	 '-z+1/4, x+1/4, y+1/4 '
	 'z+1/2, y, x+1/2 '
	 'z+1/2, x, y+1/2 '
	 'z-1/4, -y-1/4, x+1/4 '
	 'z-1/4, x-1/4, -y+1/4 '
	 'z, -x, -y '
	 'z, -y+1/2, -x+1/2 '
	 'z+1/4, -x-1/4, y-1/4 '
	 'z+1/4, y+1/4, -x+1/4 '
	 'y+1/2, z, x+1/2 '
	 'y+1/2, x, z+1/2 '
	 'y-1/4, -x-1/4, z+1/4 '
	 'y-1/4, z-1/4, -x+1/4 '
	 'y, -x+1/2, -z+1/2 '
	 'y, -z, -x '
	 'y+1/4, -z-1/4, x-1/4 '
	 'y+1/4, x+1/4, -z+1/4 '
	 'x+1/2, z, y+1/2 '
	 '-x+1/2, -y+1/2, z '
	 'x-1/4, -z-1/4, y+1/4 '
	 'x-1/4, y-1/4, -z+1/4 '
	 'x, -y, -z '
	 'x, -z+1/2, -y+1/2 '
	 'x+1/4, -y-1/4, z-1/4 '
	 'x+1/4, z+1/4, -y+1/4 '
	 'x, y+1/2, z+1/2 '
	 '-x, z, -y '
	 '-x+1/4, -y-1/4, -z-1/4 '
	 '-x+1/4, -z-1/4, -y-1/4 '
	 '-x+1/2, -z+1/2, y '
	 '-x+1/2, y, -z+1/2 '
	 '-x-1/4, z+1/4, y-1/4 '
	 '-x-1/4, y-1/4, z+1/4 '
	 '-y, -z, x '
	 '-y, x, -z '
	 '-y+1/4, -x-1/4, -z-1/4 '
	 '-y+1/4, -z-1/4, -x-1/4 '
	 '-y+1/2, -x+1/2, z '
	 '-y+1/2, z, -x+1/2 '
	 '-y-1/4, z-1/4, x+1/4 '
	 '-y-1/4, x+1/4, z-1/4 '
	 '-z, -x, y '
	 '-z, y, -x '
	 '-z+1/4, -x-1/4, -y-1/4 '
	 '-z+1/4, -y-1/4, -x-1/4 '
	 '-z+1/2, -y+1/2, x '
	 '-z+1/2, x, -y+1/2 '
	 '-z-1/4, y+1/4, x-1/4 '
	 '-z-1/4, x-1/4, y+1/4 '
	 'z, y+1/2, x+1/2 '
	 'z, x+1/2, y+1/2 '
	 'z+1/4, -y+1/4, x+1/4 '
	 'z+1/4, x+1/4, -y+1/4 '
	 'z+1/2, -x+1/2, -y '
	 'z+1/2, -y, -x+1/2 '
	 'z-1/4, -x+1/4, y-1/4 '
	 'z-1/4, y-1/4, -x+1/4 '
	 'y, z+1/2, x+1/2 '
	 'y, x+1/2, z+1/2 '
	 'y+1/4, -x+1/4, z+1/4 '
	 'y+1/4, z+1/4, -x+1/4 '
	 'y+1/2, -x, -z+1/2 '
	 'y+1/2, -z+1/2, -x '
	 'y-1/4, -z+1/4, x-1/4 '
	 'y-1/4, x-1/4, -z+1/4 '
	 'x, z+1/2, y+1/2 '
	 '-x, -y, z '
	 'x+1/4, -z+1/4, y+1/4 '
	 'x+1/4, y+1/4, -z+1/4 '
	 'x+1/2, -y+1/2, -z '
	 'x+1/2, -z, -y+1/2 '
	 'x-1/4, -y+1/4, z-1/4 '
	 'x-1/4, z-1/4, -y+1/4 '
loop_
_atom_site_label
_atom_site_type_symbol
_atom_site_site_symmetry_multiplicity
_atom_site_fract_x
_atom_site_fract_y
_atom_site_fract_z
_atom_site_occupancy
_atom_site_B_iso_or_equiv
Si1 Si   8 0 0 0 1 0.4084884