data_NISI_publ

_pd_block_id
  2002-12-22T17:32|NISI|Brian_H._Toby|Overall

_audit_creation_method  "from EXP file using GSAS2CIF"
_audit_creation_date                   2002-12-22T17:32
_audit_author_name                     "Brian H. Toby"
_audit_update_record
; 2002-12-22T17:32  Initial CIF as created by GSAS2CIF
;

#=============================================================================
# this information describes the project, paper etc. for the CIF             #
# Acta Cryst. Section C papers and editorial correspondence is generated     #
# from the information in this section                                       #
#                                                                            #
#   (from)   CIF submission form for Rietveld refinements (Acta Cryst. C)    #
#                                                 Version 14 December 1998   #
#=============================================================================
# 1. SUBMISSION DETAILS

_publ_contact_author_name            ?   # Name of author for correspondence
_publ_contact_author_address             # Address of author for correspondence
; ?
;
_publ_contact_author_email           ?
_publ_contact_author_fax             ?
_publ_contact_author_phone           ?

_publ_contact_letter
; ?
;

_publ_requested_journal              ?
_publ_requested_coeditor_name        ?
_publ_requested_category             ?   # Acta C: one of CI/CM/CO/FI/FM/FO

#==============================================================================

# 2. PROCESSING SUMMARY (IUCr Office Use Only)

_journal_data_validation_number      ?

_journal_date_recd_electronic        ?
_journal_date_to_coeditor            ?
_journal_date_from_coeditor          ?
_journal_date_accepted               ?
_journal_date_printers_first         ?
_journal_date_printers_final         ?
_journal_date_proofs_out             ?
_journal_date_proofs_in              ?
_journal_coeditor_name               ?
_journal_coeditor_code               ?
_journal_coeditor_notes
; ?
;
_journal_techeditor_code             ?
_journal_techeditor_notes
; ?
;
_journal_coden_ASTM                  ?
_journal_name_full                   ?
_journal_year                        ?
_journal_volume                      ?
_journal_issue                       ?
_journal_page_first                  ?
_journal_page_last                   ?
_journal_paper_category              ?
_journal_suppl_publ_number           ?
_journal_suppl_publ_pages            ?

#==============================================================================

# 3. TITLE AND AUTHOR LIST

_publ_section_title
; ?
;
_publ_section_title_footnote
; ?
;

# The loop structure below should contain the names and addresses of all
# authors, in the required order of publication. Repeat as necessary.

loop_
	_publ_author_name
        _publ_author_footnote
	_publ_author_address
 ?                                   #<--'Last name, first name'
; ?
;
; ?
;

#==============================================================================

# 4. TEXT

_publ_section_synopsis
;  ?
;
_publ_section_abstract
; ?
;
_publ_section_comment
; ?
;
_publ_section_exptl_prep      # Details of the preparation of the sample(s)
                              # should be given here.
; ?
;
_publ_section_exptl_refinement
; ?
;
_publ_section_references
; ?
;
_publ_section_figure_captions
; ?
;
_publ_section_acknowledgements
; ?
;

#=============================================================================
# 5. OVERALL REFINEMENT & COMPUTING DETAILS

_refine_special_details
; ?
;
_pd_proc_ls_special_details
; ?
;

# The following items are used to identify the programs used.
_computing_molecular_graphics     ?
_computing_publication_material   ?

_refine_ls_weighting_scheme       ?
_refine_ls_weighting_details      ?
_refine_ls_hydrogen_treatment     ?
_refine_ls_extinction_method      ?
_refine_ls_extinction_coef        ?
_refine_ls_number_constraints     ?

_refine_ls_restrained_S_all       ?
_refine_ls_restrained_S_obs       ?

#==============================================================================
# 6. SAMPLE PREPARATION DATA

# (In the unusual case where multiple samples are used in a single
#  Rietveld study, this information should be moved into the phase
#  blocks)

# The following three fields describe the preparation of the material.
# The cooling rate is in K/min.  The pressure at which the sample was
# prepared is in kPa.  The temperature of preparation is in K.

_pd_prep_cool_rate                ?
_pd_prep_pressure                 ?
_pd_prep_temperature              ?

_pd_char_colour                   ?       # use ICDD colour descriptions
data_NISI_overall

_refine_ls_shift/su_max                0.08
_refine_ls_shift/su_mean               0.00
_computing_structure_refinement        GSAS
_refine_ls_number_parameters           33
_refine_ls_goodness_of_fit_all         1.50
_refine_ls_number_restraints           0

# Overall powder R-factors

_pd_proc_ls_prof_R_factor              0.0271
_pd_proc_ls_prof_wR_factor             0.0370
_refine_ls_matrix_type                 full

# pointers to the phase blocks
loop_   _pd_phase_block_id
      2002-12-22T17:32|NISI_phase1|Brian_H._Toby||
      2002-12-22T17:32|NISI_phase2|Brian_H._Toby||
# pointers to the diffraction patterns
loop_   _pd_block_diffractogram_id
      2002-12-22T17:32|NISI_H_01|Brian_H._Toby|GPD
      2002-12-22T17:32|NISI_H_02|Brian_H._Toby|GPD

# Information for phase 1
data_NISI_phase_1

_pd_block_id
  2002-12-22T17:32|NISI_phase1|Brian_H._Toby||

# Histograms for phase 1
loop_   _pd_block_diffractogram_id
  2002-12-22T17:32|NISI_H_01|Brian_H._Toby|GPD
  2002-12-22T17:32|NISI_H_02|Brian_H._Toby|GPD

#==============================================================================
# 7. CHEMICAL, STRUCTURAL AND CRYSTAL DATA

_pd_char_particle_morphology      ?

_chemical_name_systematic
; ?
;
_chemical_name_common             ?
_chemical_formula_moiety          ?
_chemical_formula_structural      ?
_chemical_formula_analytical      ?
_chemical_melting_point           ?
_chemical_compound_source         ?       # for minerals and
                                          # natural products
_symmetry_space_group_name_Hall   ?

_cell_measurement_temperature     ?

_cell_special_details
; ?
;

_geom_special_details             ?

# The following item identifies the program(s) used (if appropriate).
_computing_structure_solution     ?

#==============================================================================

# 8. Phase information from GSAS

_pd_phase_name                         i				
_cell_length_a                         3.523433(29)
_cell_length_b                         3.523433
_cell_length_c                         3.523433
_cell_angle_alpha                      90.0
_cell_angle_beta                       90.0
_cell_angle_gamma                      90.0
_cell_volume                           43.74194
_symmetry_cell_setting                 cubic
_symmetry_space_group_name_H-M         "F m 3 m				"
loop_ _symmetry_equiv_pos_site_id _symmetry_equiv_pos_as_xyz
       1 +x,+y,+z 
       2 +z,+x,+y 
       3 +y,+z,+x 
       4 +x,+y,-z 
       5 -z,+x,+y 
       6 +y,-z,+x 
       7 -z,+x,-y 
       8 -y,-z,+x 
       9 +y,-z,-x 
      10 -x,+y,-z 
      11 -z,-x,+y 
      12 +x,-y,-z 
      13 +y,+x,+z 
      14 +z,+y,+x 
      15 +x,+z,+y 
      16 +y,+x,-z 
      17 -z,+y,+x 
      18 +x,-z,+y 
      19 -z,+y,-x 
      20 -x,-z,+y 
      21 +x,-z,-y 
      22 -y,+x,-z 
      23 -z,-y,+x 
      24 +y,-x,-z 
      -1 -x,-y,-z 
      -2 -z,-x,-y 
      -3 -y,-z,-x 
      -4 -x,-y,+z 
      -5 +z,-x,-y 
      -6 -y,+z,-x 
      -7 +z,-x,+y 
      -8 +y,+z,-x 
      -9 -y,+z,+x 
     -10 +x,-y,+z 
     -11 +z,+x,-y 
     -12 -x,+y,+z 
     -13 -y,-x,-z 
     -14 -z,-y,-x 
     -15 -x,-z,-y 
     -16 -y,-x,+z 
     -17 +z,-y,-x 
     -18 -x,+z,-y 
     -19 +z,-y,+x 
     -20 +x,+z,-y 
     -21 -x,+z,+y 
     -22 +y,-x,+z 
     -23 +z,+y,-x 
     -24 -y,+x,+z 
     101 +x,+y+1/2,+z+1/2 
     102 +z,+x+1/2,+y+1/2 
     103 +y,+z+1/2,+x+1/2 
     104 +x,+y+1/2,-z+1/2 
     105 -z,+x+1/2,+y+1/2 
     106 +y,-z+1/2,+x+1/2 
     107 -z,+x+1/2,-y+1/2 
     108 -y,-z+1/2,+x+1/2 
     109 +y,-z+1/2,-x+1/2 
     110 -x,+y+1/2,-z+1/2 
     111 -z,-x+1/2,+y+1/2 
     112 +x,-y+1/2,-z+1/2 
     113 +y,+x+1/2,+z+1/2 
     114 +z,+y+1/2,+x+1/2 
     115 +x,+z+1/2,+y+1/2 
     116 +y,+x+1/2,-z+1/2 
     117 -z,+y+1/2,+x+1/2 
     118 +x,-z+1/2,+y+1/2 
     119 -z,+y+1/2,-x+1/2 
     120 -x,-z+1/2,+y+1/2 
     121 +x,-z+1/2,-y+1/2 
     122 -y,+x+1/2,-z+1/2 
     123 -z,-y+1/2,+x+1/2 
     124 +y,-x+1/2,-z+1/2 
    -101 -x,-y+1/2,-z+1/2 
    -102 -z,-x+1/2,-y+1/2 
    -103 -y,-z+1/2,-x+1/2 
    -104 -x,-y+1/2,+z+1/2 
    -105 +z,-x+1/2,-y+1/2 
    -106 -y,+z+1/2,-x+1/2 
    -107 +z,-x+1/2,+y+1/2 
    -108 +y,+z+1/2,-x+1/2 
    -109 -y,+z+1/2,+x+1/2 
    -110 +x,-y+1/2,+z+1/2 
    -111 +z,+x+1/2,-y+1/2 
    -112 -x,+y+1/2,+z+1/2 
    -113 -y,-x+1/2,-z+1/2 
    -114 -z,-y+1/2,-x+1/2 
    -115 -x,-z+1/2,-y+1/2 
    -116 -y,-x+1/2,+z+1/2 
    -117 +z,-y+1/2,-x+1/2 
    -118 -x,+z+1/2,-y+1/2 
    -119 +z,-y+1/2,+x+1/2 
    -120 +x,+z+1/2,-y+1/2 
    -121 -x,+z+1/2,+y+1/2 
    -122 +y,-x+1/2,+z+1/2 
    -123 +z,+y+1/2,-x+1/2 
    -124 -y,+x+1/2,+z+1/2 
     201 +x+1/2,+y,+z+1/2 
     202 +z+1/2,+x,+y+1/2 
     203 +y+1/2,+z,+x+1/2 
     204 +x+1/2,+y,-z+1/2 
     205 -z+1/2,+x,+y+1/2 
     206 +y+1/2,-z,+x+1/2 
     207 -z+1/2,+x,-y+1/2 
     208 -y+1/2,-z,+x+1/2 
     209 +y+1/2,-z,-x+1/2 
     210 -x+1/2,+y,-z+1/2 
     211 -z+1/2,-x,+y+1/2 
     212 +x+1/2,-y,-z+1/2 
     213 +y+1/2,+x,+z+1/2 
     214 +z+1/2,+y,+x+1/2 
     215 +x+1/2,+z,+y+1/2 
     216 +y+1/2,+x,-z+1/2 
     217 -z+1/2,+y,+x+1/2 
     218 +x+1/2,-z,+y+1/2 
     219 -z+1/2,+y,-x+1/2 
     220 -x+1/2,-z,+y+1/2 
     221 +x+1/2,-z,-y+1/2 
     222 -y+1/2,+x,-z+1/2 
     223 -z+1/2,-y,+x+1/2 
     224 +y+1/2,-x,-z+1/2 
    -201 -x+1/2,-y,-z+1/2 
    -202 -z+1/2,-x,-y+1/2 
    -203 -y+1/2,-z,-x+1/2 
    -204 -x+1/2,-y,+z+1/2 
    -205 +z+1/2,-x,-y+1/2 
    -206 -y+1/2,+z,-x+1/2 
    -207 +z+1/2,-x,+y+1/2 
    -208 +y+1/2,+z,-x+1/2 
    -209 -y+1/2,+z,+x+1/2 
    -210 +x+1/2,-y,+z+1/2 
    -211 +z+1/2,+x,-y+1/2 
    -212 -x+1/2,+y,+z+1/2 
    -213 -y+1/2,-x,-z+1/2 
    -214 -z+1/2,-y,-x+1/2 
    -215 -x+1/2,-z,-y+1/2 
    -216 -y+1/2,-x,+z+1/2 
    -217 +z+1/2,-y,-x+1/2 
    -218 -x+1/2,+z,-y+1/2 
    -219 +z+1/2,-y,+x+1/2 
    -220 +x+1/2,+z,-y+1/2 
    -221 -x+1/2,+z,+y+1/2 
    -222 +y+1/2,-x,+z+1/2 
    -223 +z+1/2,+y,-x+1/2 
    -224 -y+1/2,+x,+z+1/2 
     301 +x+1/2,+y+1/2,+z 
     302 +z+1/2,+x+1/2,+y 
     303 +y+1/2,+z+1/2,+x 
     304 +x+1/2,+y+1/2,-z 
     305 -z+1/2,+x+1/2,+y 
     306 +y+1/2,-z+1/2,+x 
     307 -z+1/2,+x+1/2,-y 
     308 -y+1/2,-z+1/2,+x 
     309 +y+1/2,-z+1/2,-x 
     310 -x+1/2,+y+1/2,-z 
     311 -z+1/2,-x+1/2,+y 
     312 +x+1/2,-y+1/2,-z 
     313 +y+1/2,+x+1/2,+z 
     314 +z+1/2,+y+1/2,+x 
     315 +x+1/2,+z+1/2,+y 
     316 +y+1/2,+x+1/2,-z 
     317 -z+1/2,+y+1/2,+x 
     318 +x+1/2,-z+1/2,+y 
     319 -z+1/2,+y+1/2,-x 
     320 -x+1/2,-z+1/2,+y 
     321 +x+1/2,-z+1/2,-y 
     322 -y+1/2,+x+1/2,-z 
     323 -z+1/2,-y+1/2,+x 
     324 +y+1/2,-x+1/2,-z 
    -301 -x+1/2,-y+1/2,-z 
    -302 -z+1/2,-x+1/2,-y 
    -303 -y+1/2,-z+1/2,-x 
    -304 -x+1/2,-y+1/2,+z 
    -305 +z+1/2,-x+1/2,-y 
    -306 -y+1/2,+z+1/2,-x 
    -307 +z+1/2,-x+1/2,+y 
    -308 +y+1/2,+z+1/2,-x 
    -309 -y+1/2,+z+1/2,+x 
    -310 +x+1/2,-y+1/2,+z 
    -311 +z+1/2,+x+1/2,-y 
    -312 -x+1/2,+y+1/2,+z 
    -313 -y+1/2,-x+1/2,-z 
    -314 -z+1/2,-y+1/2,-x 
    -315 -x+1/2,-z+1/2,-y 
    -316 -y+1/2,-x+1/2,+z 
    -317 +z+1/2,-y+1/2,-x 
    -318 -x+1/2,+z+1/2,-y 
    -319 +z+1/2,-y+1/2,+x 
    -320 +x+1/2,+z+1/2,-y 
    -321 -x+1/2,+z+1/2,+y 
    -322 +y+1/2,-x+1/2,+z 
    -323 +z+1/2,+y+1/2,-x 
    -324 -y+1/2,+x+1/2,+z 

# ATOMIC COORDINATES AND DISPLACEMENT PARAMETERS


loop_
      _atom_site_type_symbol
      _atom_site_label
      _atom_site_fract_x
      _atom_site_fract_y
      _atom_site_fract_z
      _atom_site_occupancy
      _atom_site_thermal_displace_type
      _atom_site_U_iso_or_equiv
      _atom_site_symmetry_multiplicity
NI      
Nickel  0.0          0.0          0.0          1.0        Uiso   0.00435(10)   4

loop_ _atom_type_symbol
      _atom_type_number_in_cell
                   NI  4.0        
 
# If you change Z, be sure to change all 3 of the following
_chemical_formula_sum                  Ni
_chemical_formula_weight               58.71
_cell_formula_units_Z                  4

# MOLECULAR GEOMETRY

loop_
      _geom_bond_atom_site_label_1
      _geom_bond_atom_site_label_2
      _geom_bond_distance
      _geom_bond_site_symmetry_1
      _geom_bond_site_symmetry_2
      _geom_bond_publ_flag
   ?   ?   ?   ?   ?   ?

loop_
      _geom_angle_atom_site_label_1
      _geom_angle_atom_site_label_2
      _geom_angle_atom_site_label_3
      _geom_angle
      _geom_angle_site_symmetry_1
      _geom_angle_site_symmetry_2
      _geom_angle_site_symmetry_3
      _geom_angle_publ_flag
   ?   ?   ?   ?   ?   ?   ?   ?

# Information for phase 2
data_NISI_phase_2

_pd_block_id
  2002-12-22T17:32|NISI_phase2|Brian_H._Toby||

# Histograms for phase 2
loop_   _pd_block_diffractogram_id
  2002-12-22T17:32|NISI_H_01|Brian_H._Toby|GPD
  2002-12-22T17:32|NISI_H_02|Brian_H._Toby|GPD

#==============================================================================
# 7. CHEMICAL, STRUCTURAL AND CRYSTAL DATA

_pd_char_particle_morphology      ?

_chemical_name_systematic
; ?
;
_chemical_name_common             ?
_chemical_formula_moiety          ?
_chemical_formula_structural      ?
_chemical_formula_analytical      ?
_chemical_melting_point           ?
_chemical_compound_source         ?       # for minerals and
                                          # natural products
_symmetry_space_group_name_Hall   ?

_cell_measurement_temperature     ?

_cell_special_details
; ?
;

_geom_special_details             ?

# The following item identifies the program(s) used (if appropriate).
_computing_structure_solution     ?

#==============================================================================

# 8. Phase information from GSAS

_pd_phase_name                         Silicon		
_cell_length_a                         5.42957(9)
_cell_length_b                         5.42957
_cell_length_c                         5.42957
_cell_angle_alpha                      90.0
_cell_angle_beta                       90.0
_cell_angle_gamma                      90.0
_cell_volume                           160.06508
_symmetry_cell_setting                 cubic
_symmetry_space_group_name_H-M         "F d 3 m		"
loop_ _symmetry_equiv_pos_site_id _symmetry_equiv_pos_as_xyz
       1 +x,+y,+z 
       2 +z,+x,+y 
       3 +y,+z,+x 
       4 +x+1/4,+y+1/4,-z 
       5 -z,+x+1/4,+y+1/4 
       6 +y+1/4,-z,+x+1/4 
       7 -z+1/4,+x+1/2,-y+3/4 
       8 -y+3/4,-z+1/4,+x+1/2 
       9 +y+1/2,-z+1/4,-x+3/4 
      10 -x+3/4,+y+1/2,-z+1/4 
      11 -z+1/4,-x+3/4,+y+1/2 
      12 +x+1/2,-y+3/4,-z+1/4 
      13 +y,+x,+z 
      14 +z,+y,+x 
      15 +x,+z,+y 
      16 +y+1/4,+x+1/4,-z 
      17 -z,+y+1/4,+x+1/4 
      18 +x+1/4,-z,+y+1/4 
      19 -z+1/4,+y+1/2,-x+3/4 
      20 -x+3/4,-z+1/4,+y+1/2 
      21 +x+1/2,-z+1/4,-y+3/4 
      22 -y+3/4,+x+1/2,-z+1/4 
      23 -z+1/4,-y+3/4,+x+1/2 
      24 +y+1/2,-x+3/4,-z+1/4 
      -1 -x,-y,-z 
      -2 -z,-x,-y 
      -3 -y,-z,-x 
      -4 -x+3/4,-y+3/4,+z 
      -5 +z,-x+3/4,-y+3/4 
      -6 -y+3/4,+z,-x+3/4 
      -7 +z+3/4,-x+1/2,+y+1/4 
      -8 +y+1/4,+z+3/4,-x+1/2 
      -9 -y+1/2,+z+3/4,+x+1/4 
     -10 +x+1/4,-y+1/2,+z+3/4 
     -11 +z+3/4,+x+1/4,-y+1/2 
     -12 -x+1/2,+y+1/4,+z+3/4 
     -13 -y,-x,-z 
     -14 -z,-y,-x 
     -15 -x,-z,-y 
     -16 -y+3/4,-x+3/4,+z 
     -17 +z,-y+3/4,-x+3/4 
     -18 -x+3/4,+z,-y+3/4 
     -19 +z+3/4,-y+1/2,+x+1/4 
     -20 +x+1/4,+z+3/4,-y+1/2 
     -21 -x+1/2,+z+3/4,+y+1/4 
     -22 +y+1/4,-x+1/2,+z+3/4 
     -23 +z+3/4,+y+1/4,-x+1/2 
     -24 -y+1/2,+x+1/4,+z+3/4 
     101 +x,+y+1/2,+z+1/2 
     102 +z,+x+1/2,+y+1/2 
     103 +y,+z+1/2,+x+1/2 
     104 +x+1/4,+y+3/4,-z+1/2 
     105 -z,+x+3/4,+y+3/4 
     106 +y+1/4,-z+1/2,+x+3/4 
     107 -z+1/4,+x,-y+1/4 
     108 -y+3/4,-z+3/4,+x 
     109 +y+1/2,-z+3/4,-x+1/4 
     110 -x+3/4,+y,-z+3/4 
     111 -z+1/4,-x+1/4,+y 
     112 +x+1/2,-y+1/4,-z+3/4 
     113 +y,+x+1/2,+z+1/2 
     114 +z,+y+1/2,+x+1/2 
     115 +x,+z+1/2,+y+1/2 
     116 +y+1/4,+x+3/4,-z+1/2 
     117 -z,+y+3/4,+x+3/4 
     118 +x+1/4,-z+1/2,+y+3/4 
     119 -z+1/4,+y,-x+1/4 
     120 -x+3/4,-z+3/4,+y 
     121 +x+1/2,-z+3/4,-y+1/4 
     122 -y+3/4,+x,-z+3/4 
     123 -z+1/4,-y+1/4,+x 
     124 +y+1/2,-x+1/4,-z+3/4 
    -101 -x,-y+1/2,-z+1/2 
    -102 -z,-x+1/2,-y+1/2 
    -103 -y,-z+1/2,-x+1/2 
    -104 -x+3/4,-y+1/4,+z+1/2 
    -105 +z,-x+1/4,-y+1/4 
    -106 -y+3/4,+z+1/2,-x+1/4 
    -107 +z+3/4,-x,+y+3/4 
    -108 +y+1/4,+z+1/4,-x 
    -109 -y+1/2,+z+1/4,+x+3/4 
    -110 +x+1/4,-y,+z+1/4 
    -111 +z+3/4,+x+3/4,-y 
    -112 -x+1/2,+y+3/4,+z+1/4 
    -113 -y,-x+1/2,-z+1/2 
    -114 -z,-y+1/2,-x+1/2 
    -115 -x,-z+1/2,-y+1/2 
    -116 -y+3/4,-x+1/4,+z+1/2 
    -117 +z,-y+1/4,-x+1/4 
    -118 -x+3/4,+z+1/2,-y+1/4 
    -119 +z+3/4,-y,+x+3/4 
    -120 +x+1/4,+z+1/4,-y 
    -121 -x+1/2,+z+1/4,+y+3/4 
    -122 +y+1/4,-x,+z+1/4 
    -123 +z+3/4,+y+3/4,-x 
    -124 -y+1/2,+x+3/4,+z+1/4 
     201 +x+1/2,+y,+z+1/2 
     202 +z+1/2,+x,+y+1/2 
     203 +y+1/2,+z,+x+1/2 
     204 +x+3/4,+y+1/4,-z+1/2 
     205 -z+1/2,+x+1/4,+y+3/4 
     206 +y+3/4,-z,+x+3/4 
     207 -z+3/4,+x+1/2,-y+1/4 
     208 -y+1/4,-z+1/4,+x 
     209 +y,-z+1/4,-x+1/4 
     210 -x+1/4,+y+1/2,-z+3/4 
     211 -z+3/4,-x+3/4,+y 
     212 +x,-y+3/4,-z+3/4 
     213 +y+1/2,+x,+z+1/2 
     214 +z+1/2,+y,+x+1/2 
     215 +x+1/2,+z,+y+1/2 
     216 +y+3/4,+x+1/4,-z+1/2 
     217 -z+1/2,+y+1/4,+x+3/4 
     218 +x+3/4,-z,+y+3/4 
     219 -z+3/4,+y+1/2,-x+1/4 
     220 -x+1/4,-z+1/4,+y 
     221 +x,-z+1/4,-y+1/4 
     222 -y+1/4,+x+1/2,-z+3/4 
     223 -z+3/4,-y+3/4,+x 
     224 +y,-x+3/4,-z+3/4 
    -201 -x+1/2,-y,-z+1/2 
    -202 -z+1/2,-x,-y+1/2 
    -203 -y+1/2,-z,-x+1/2 
    -204 -x+1/4,-y+3/4,+z+1/2 
    -205 +z+1/2,-x+3/4,-y+1/4 
    -206 -y+1/4,+z,-x+1/4 
    -207 +z+1/4,-x+1/2,+y+3/4 
    -208 +y+3/4,+z+3/4,-x 
    -209 -y,+z+3/4,+x+3/4 
    -210 +x+3/4,-y+1/2,+z+1/4 
    -211 +z+1/4,+x+1/4,-y 
    -212 -x,+y+1/4,+z+1/4 
    -213 -y+1/2,-x,-z+1/2 
    -214 -z+1/2,-y,-x+1/2 
    -215 -x+1/2,-z,-y+1/2 
    -216 -y+1/4,-x+3/4,+z+1/2 
    -217 +z+1/2,-y+3/4,-x+1/4 
    -218 -x+1/4,+z,-y+1/4 
    -219 +z+1/4,-y+1/2,+x+3/4 
    -220 +x+3/4,+z+3/4,-y 
    -221 -x,+z+3/4,+y+3/4 
    -222 +y+3/4,-x+1/2,+z+1/4 
    -223 +z+1/4,+y+1/4,-x 
    -224 -y,+x+1/4,+z+1/4 
     301 +x+1/2,+y+1/2,+z 
     302 +z+1/2,+x+1/2,+y 
     303 +y+1/2,+z+1/2,+x 
     304 +x+3/4,+y+3/4,-z 
     305 -z+1/2,+x+3/4,+y+1/4 
     306 +y+3/4,-z+1/2,+x+1/4 
     307 -z+3/4,+x,-y+3/4 
     308 -y+1/4,-z+3/4,+x+1/2 
     309 +y,-z+3/4,-x+3/4 
     310 -x+1/4,+y,-z+1/4 
     311 -z+3/4,-x+1/4,+y+1/2 
     312 +x,-y+1/4,-z+1/4 
     313 +y+1/2,+x+1/2,+z 
     314 +z+1/2,+y+1/2,+x 
     315 +x+1/2,+z+1/2,+y 
     316 +y+3/4,+x+3/4,-z 
     317 -z+1/2,+y+3/4,+x+1/4 
     318 +x+3/4,-z+1/2,+y+1/4 
     319 -z+3/4,+y,-x+3/4 
     320 -x+1/4,-z+3/4,+y+1/2 
     321 +x,-z+3/4,-y+3/4 
     322 -y+1/4,+x,-z+1/4 
     323 -z+3/4,-y+1/4,+x+1/2 
     324 +y,-x+1/4,-z+1/4 
    -301 -x+1/2,-y+1/2,-z 
    -302 -z+1/2,-x+1/2,-y 
    -303 -y+1/2,-z+1/2,-x 
    -304 -x+1/4,-y+1/4,+z 
    -305 +z+1/2,-x+1/4,-y+3/4 
    -306 -y+1/4,+z+1/2,-x+3/4 
    -307 +z+1/4,-x,+y+1/4 
    -308 +y+3/4,+z+1/4,-x+1/2 
    -309 -y,+z+1/4,+x+1/4 
    -310 +x+3/4,-y,+z+3/4 
    -311 +z+1/4,+x+3/4,-y+1/2 
    -312 -x,+y+3/4,+z+3/4 
    -313 -y+1/2,-x+1/2,-z 
    -314 -z+1/2,-y+1/2,-x 
    -315 -x+1/2,-z+1/2,-y 
    -316 -y+1/4,-x+1/4,+z 
    -317 +z+1/2,-y+1/4,-x+3/4 
    -318 -x+1/4,+z+1/2,-y+3/4 
    -319 +z+1/4,-y,+x+1/4 
    -320 +x+3/4,+z+1/4,-y+1/2 
    -321 -x,+z+1/4,+y+1/4 
    -322 +y+3/4,-x,+z+3/4 
    -323 +z+1/4,+y+3/4,-x+1/2 
    -324 -y,+x+3/4,+z+3/4 

# ATOMIC COORDINATES AND DISPLACEMENT PARAMETERS


loop_
      _atom_site_type_symbol
      _atom_site_label
      _atom_site_fract_x
      _atom_site_fract_y
      _atom_site_fract_z
      _atom_site_occupancy
      _atom_site_thermal_displace_type
      _atom_site_U_iso_or_equiv
      _atom_site_symmetry_multiplicity
SI      
Silico  0.125        0.125        0.125        1.0        Uiso   0.00540(21)   8

loop_ _atom_type_symbol
      _atom_type_number_in_cell
                   SI  8.0        
 
# If you change Z, be sure to change all 3 of the following
_chemical_formula_sum                  Si
_chemical_formula_weight               28.09
_cell_formula_units_Z                  8

# MOLECULAR GEOMETRY

loop_
      _geom_bond_atom_site_label_1
      _geom_bond_atom_site_label_2
      _geom_bond_distance
      _geom_bond_site_symmetry_1
      _geom_bond_site_symmetry_2
      _geom_bond_publ_flag
  Silicon   Silicon       2.351070(30)  .      4_555  N
  Silicon   Silicon       2.351070(30)  .      5_555  N
  Silicon   Silicon       2.351070(30)  .      6_555  N
  Silicon   Silicon       2.351070(30)  .     -1_555  N

loop_
      _geom_angle_atom_site_label_1
      _geom_angle_atom_site_label_2
      _geom_angle_atom_site_label_3
      _geom_angle
      _geom_angle_site_symmetry_1
      _geom_angle_site_symmetry_2
      _geom_angle_site_symmetry_3
      _geom_angle_publ_flag
  Silicon   Silicon   Silicon        109.4712(6)      4_555  .      5_555  N
  Silicon   Silicon   Silicon        109.4712(6)      4_555  .      6_555  N
  Silicon   Silicon   Silicon       109.4712(12)      4_555  .     -1_555  N
  Silicon   Silicon   Silicon       109.4712(12)      5_555  .      6_555  N
  Silicon   Silicon   Silicon        109.4712(6)      5_555  .     -1_555  N
  Silicon   Silicon   Silicon        109.4712(6)      6_555  .     -1_555  N

# Powder diffraction data for histogram  1
data_NISI_p_01

_pd_block_id
  2002-12-22T17:32|NISI_H_01|Brian_H._Toby|GPD
#==============================================================================
# 9. INSTRUMENT CHARACTERIZATION

_exptl_special_details
; ?
;

# if regions of the data are excluded, the reason(s) are supplied here:
_pd_proc_info_excluded_regions
; ?
;

# The following item is used to identify the equipment used to record
# the powder pattern when the diffractogram was measured at a laboratory
# other than the authors' home institution, e.g. when neutron or synchrotron
# radiation is used.

_pd_instr_location
; ?
;
_pd_calibration_special_details           # description of the method used
                                          # to calibrate the instrument
; ?
;

_diffrn_ambient_temperature       ?
_diffrn_source                    ?
_diffrn_source_target             ?
_diffrn_source_type               ?
_diffrn_measurement_device_type   ?
_diffrn_detector                  ?
_diffrn_detector_type             ?       # make or model of detector

_pd_meas_scan_method              ?       # options are 'step', 'cont',
                                          # 'tof', 'fixed' or
                                          # 'disp' (= dispersive)
_pd_meas_special_details
;  ?
;

# The following two items identify the program(s) used (if appropriate).
_computing_data_collection        ?
_computing_data_reduction         ?

# Describe any processing performed on the data, prior to refinement.
# For example: a manual Lp correction or a precomputed absorption correction
_pd_proc_info_data_reduction      ?

# The following item is used for angular dispersive measurements only.

_diffrn_radiation_monochromator   ?

# The following items are used to define the size of the instrument.
# Not all distances are appropriate for all instrument types.

_pd_instr_dist_src/mono           ?
_pd_instr_dist_mono/spec          ?
_pd_instr_dist_src/spec           ?
_pd_instr_dist_spec/anal          ?
_pd_instr_dist_anal/detc          ?
_pd_instr_dist_spec/detc          ?

# 10. Specimen size and mounting information

# The next three fields give the specimen dimensions in mm.  The equatorial
# plane contains the incident and diffracted beam.

_pd_spec_size_axial               ?       # perpendicular to
                                          # equatorial plane

_pd_spec_size_equat               ?       # parallel to
                                          # scattering vector
                                          # in transmission

_pd_spec_size_thick               ?       # parallel to
                                          # scattering vector
                                          # in reflection

_pd_spec_mounting                         # This field should be
                                          # used to give details of the
                                          # container.
; ?
;

_pd_spec_mount_mode               ?       # options are 'reflection'
                                          # or 'transmission'

_pd_spec_shape                    ?       # options are 'cylinder'
                                          # 'flat_sheet' or 'irregular'

# phase table
loop_     _pd_phase_id
          _pd_phase_block_id
          _pd_phase_mass_%
          _pd_proc_ls_profile_function
          _pd_proc_ls_peak_cutoff
  1  2002-12-22T17:32|NISI_phase1|Brian_H._Toby||
            51(49)
;
 TOF Profile function number 1 with  12 terms
 Profile coefficients for Von Dreele,
 Jorgensen & Windsor convolution function
  J. Appl. Cryst., 15,581-589(1982)
  Modified by Von Dreele - unpublished (1983).
 #1(alp-0) =   0.0000 #3(bet-0) =   5.5766E-02 #5(sig-0) =      0.286
 #2(alp-1) =   0.1374 #4(bet-1) =   1.3723E-03 #6(sig-1) =     49.963
 #8(rstr ) =    0.000 #9(rsta ) =        0.000 #7(sig-2) =     -4.490
 #10(rsca) =    0.000 #11(s1ec) =         0.00 #12(s2ec) =       4.95
 Peak tails are ignored  where the intensity is below 0.0050 times the peak
   Aniso. broadening axis   0.0   0.0   1.0
;
           0.00500
  2  2002-12-22T17:32|NISI_phase2|Brian_H._Toby||
            49(49)
;
 TOF Profile function number 1 with  12 terms
 Profile coefficients for Von Dreele,
 Jorgensen & Windsor convolution function
  J. Appl. Cryst., 15,581-589(1982)
  Modified by Von Dreele - unpublished (1983).
 #1(alp-0) =   0.0000 #3(bet-0) =   5.5766E-02 #5(sig-0) =      1.267
 #2(alp-1) =   0.1374 #4(bet-1) =   1.3723E-03 #6(sig-1) =     10.000
 #8(rstr ) =    0.000 #9(rsta ) =        0.000 #7(sig-2) =      0.000
 #10(rsca) =    0.000 #11(s1ec) =         0.00 #12(s2ec) =       0.00
 Peak tails are ignored  where the intensity is below 0.0050 times the peak
   Aniso. broadening axis   0.0   0.0   1.0
;
           0.00500

loop_ _atom_type_symbol
      _atom_type_scat_length_neutron
      _atom_type_scat_source
  NI   1.0300
  International_Tables_Vol_C
  SI   0.4149
  International_Tables_Vol_C
_diffrn_radiation_probe                neutron
_pd_proc_ls_prof_R_factor              0.0272
_pd_proc_ls_prof_wR_factor             0.0384
_pd_proc_ls_prof_wR_expected           0.0294
_refine_ls_R_Fsqd_factor               0.07288

_pd_proc_ls_background_function
;   GSAS Background function number 2 with  6 terms.
 Cosine Fourier series
      1:   0.257511     2:  -5.126050E-02 3:  -0.106891     4:  -7.253230E-02
      5:  -4.390250E-02 6:  -1.267150E-02
;

_exptl_absorpt_process_details
;   GSAS Absorption/surface roughness correction: function number 0
 Debye-Scherrer absorption correction
Term (= MU.r/wave) =     0.24308E-01
Correction is refined.
;
_exptl_absorpt_correction_T_min        0.89986
_exptl_absorpt_correction_T_max        0.96223
# Extinction correction
_gsas_exptl_extinct_corr_T_min         1.00000
_gsas_exptl_extinct_corr_T_max         1.00000
_pd_proc_info_datetime                 2002-12-22T17:32:19
_pd_calc_method                        "Rietveld Refinement"
_pd_meas_2theta_fixed                  148.29

#---- raw data loop -----

loop_ _pd_meas_time_of_flight
      _pd_meas_intensity_total
      _pd_meas_point_id
      1000.0   1818(34)     626
      1001.6   1810(34)     627
      1003.2   1808(34)     628
      1004.8   1838(34)     629
      1006.4   1783(33)     630
      1008.0   1821(34)     631
      1009.6   1871(34)     632
      1011.2   1850(34)     633
      1012.8   1820(34)     634
      1014.4   1786(33)     635
      1016.0   1754(33)     636
      1017.6   1737(33)     637
      1019.2   1786(33)     638
      1020.8   1858(34)     639
      1022.4   1853(34)     640
      1024.0   1815(34)     641
      1025.6   1833(34)     642
      1027.2   1796(34)     643
      1028.8   1743(33)     644
      1030.4   1809(34)     645
      1032.0   1773(33)     646
      1033.6   1806(34)     647
      1035.2   1826(34)     648
      1036.8   1778(33)     649
      1038.4   1749(33)     650
      1040.0   1791(33)     651
      1041.6   1791(33)     652
      1043.2   1785(33)     653
      1044.8   1768(33)     654
      1046.4   1749(33)     655
      1048.0   1746(33)     656
      1049.6   1719(33)     657
      1051.2   1735(33)     658
      1052.8   1728(33)     659
      1054.4   1767(33)     660
      1056.0   1722(33)     661
      1057.6   1721(33)     662
      1059.2   1750(33)     663
      1060.8   1794(33)     664
      1062.4   1714(33)     665
      1064.0   1765(33)     666
      1065.6   1761(33)     667
      1067.2   1771(33)     668
      1068.8   1733(33)     669
      1070.4   1723(33)     670
      1072.0   1736(33)     671
      1073.6   1758(33)     672
      1075.2   1753(33)     673
      1076.8   1753(33)     674
      1078.4   1745(33)     675
      1080.0   1702(33)     676
      1081.6   1710(33)     677
      1083.2   1714(33)     678
      1084.8   1718(33)     679
      1086.4   1701(33)     680
      1088.0   1698(33)     681
      1089.6   1697(33)     682
      1091.2   1756(33)     683
      1092.8   1785(33)     684
      1094.4   1704(33)     685
      1096.0   1707(33)     686
      1097.6   1744(33)     687
      1099.2   1727(33)     688
      1100.8   1718(33)     689
      1102.4   1754(33)     690
      1104.0   1726(33)     691
      1105.6   1726(33)     692
      1107.2   1729(33)     693
      1108.8   1692(33)     694
      1110.4   1759(33)     695
      1112.0   1708(33)     696
      1113.6   1712(33)     697
      1115.2   1735(33)     698
      1116.8   1756(33)     699
      1118.4   1758(33)     700
      1120.0   1738(33)     701
      1121.6   1723(33)     702
      1123.2   1667(32)     703
      1124.8   1651(32)     704
      1126.4   1680(32)     705
      1128.0   1685(32)     706
      1129.6   1781(33)     707
      1131.2   1698(33)     708
      1132.8   1679(32)     709
      1134.4   1686(32)     710
      1136.0   1638(32)     711
      1137.6   1694(33)     712
      1139.2   1679(32)     713
      1140.8   1730(33)     714
      1142.4   1706(33)     715
      1144.0   1734(33)     716
      1145.6   1716(33)     717
      1147.2   1696(33)     718
      1148.8   1654(32)     719
      1150.4   1666(32)     720
      1152.0   1697(33)     721
      1153.6   1661(32)     722
      1155.2   1704(33)     723
      1156.8   1738(33)     724
      1158.4   1705(33)     725
      1160.0   1679(32)     726
      1161.6   1647(32)     727
      1163.2   1661(32)     728
      1164.8   1639(32)     729
      1166.4   1660(32)     730
      1168.0   1701(33)     731
      1169.6   1676(32)     732
      1171.2   1652(32)     733
      1172.8   1667(32)     734
      1174.4   1654(32)     735
      1176.0   1646(32)     736
      1177.6   1657(32)     737
      1179.2   1706(33)     738
      1180.8   1716(33)     739
      1182.4   1731(33)     740
      1184.0   1683(32)     741
      1185.6   1679(32)     742
      1187.2   1678(32)     743
      1188.8   1694(33)     744
      1190.4   1709(33)     745
      1192.0   1716(33)     746
      1193.6   1636(32)     747
      1195.2   1666(32)     748
      1196.8   1674(32)     749
      1198.4   1650(32)     750
      1200.0   1659(32)     751
      1201.6   1669(32)     752
      1203.2   1709(33)     753
      1204.8   1619(32)     754
      1206.4   1643(32)     755
      1208.0   1637(32)     756
      1209.6   1617(32)     757
      1211.2   1666(32)     758
      1212.8   1619(32)     759
      1214.4   1587(31)     760
      1216.0   1651(32)     761
      1217.6   1629(32)     762
      1219.2   1633(32)     763
      1220.8   1660(32)     764
      1222.4   1626(32)     765
      1224.0   1645(32)     766
      1225.6   1642(32)     767
      1227.2   1613(32)     768
      1228.8   1665(32)     769
      1230.4   1640(32)     770
      1232.0   1657(32)     771
      1233.6   1649(32)     772
      1235.2   1683(32)     773
      1236.8   1646(32)     774
      1238.4   1657(32)     775
      1240.0   1661(32)     776
      1241.6   1606(32)     777
      1243.2   1599(32)     778
      1244.8   1616(32)     779
      1246.4   1624(32)     780
      1248.0   1644(32)     781
      1249.6   1622(32)     782
      1251.2   1607(32)     783
      1252.8   1603(32)     784
      1254.4   1578(31)     785
      1256.0   1623(32)     786
      1257.6   1626(32)     787
      1259.2   1645(32)     788
      1260.8   1662(32)     789
      1262.4   1611(32)     790
      1264.0   1626(32)     791
      1265.6   1599(32)     792
      1267.2   1611(32)     793
      1268.8   1651(32)     794
      1270.4   1646(32)     795
      1272.0   1663(32)     796
      1273.6   1607(32)     797
      1275.2   1601(32)     798
      1276.8   1631(32)     799
      1278.4   1647(32)     800
      1280.0   1615(32)     801
      1281.6   1589(32)     802
      1283.2   1626(32)     803
      1284.8   1630(32)     804
      1286.4   1638(32)     805
      1288.0   1601(32)     806
      1289.6   1608(32)     807
      1291.2   1592(32)     808
      1292.8   1587(31)     809
      1294.4   1589(32)     810
      1296.0   1588(31)     811
      1297.6   1607(32)     812
      1299.2   1639(32)     813
      1300.8   1648(32)     814
      1302.4   1626(32)     815
      1304.0   1609(32)     816
      1305.6   1633(32)     817
      1307.2   1643(32)     818
      1308.8   1660(32)     819
      1310.4   1610(32)     820
      1312.0   1605(32)     821
      1313.6   1608(32)     822
      1315.2   1608(32)     823
      1316.8   1636(32)     824
      1318.4   1586(31)     825
      1320.0   1653(32)     826
      1321.6   1547(31)     827
      1323.2   1586(31)     828
      1324.8   1600(32)     829
      1326.4   1578(31)     830
      1328.0   1588(31)     831
      1329.6   1606(32)     832
      1331.2   1604(32)     833
      1332.8   1601(32)     834
      1334.4   1603(32)     835
      1336.0   1621(32)     836
      1337.6   1537(31)     837
      1339.2   1538(31)     838
      1340.8   1566(31)     839
      1342.4   1575(31)     840
      1344.0   1592(32)     841
      1345.6   1584(31)     842
      1347.2   1618(32)     843
      1348.8   1581(31)     844
      1350.4   1551(31)     845
      1352.0   1536(31)     846
      1353.6   1561(31)     847
      1355.2   1545(31)     848
      1356.8   1571(31)     849
      1358.4   1602(32)     850
      1360.0   1571(31)     851
      1361.6   1608(32)     852
      1363.2   1619(32)     853
      1364.8   1613(32)     854
      1366.4   1633(32)     855
      1368.0   1641(32)     856
      1369.6   1561(31)     857
      1371.2   1554(31)     858
      1372.8   1573(31)     859
      1374.4   1560(31)     860
      1376.0   1561(31)     861
      1377.6   1554(31)     862
      1379.2   1566(31)     863
      1380.8   1571(31)     864
      1382.4   1535(31)     865
      1384.0   1560(31)     866
      1385.6   1540(31)     867
      1387.2   1557(31)     868
      1388.8   1566(31)     869
      1390.4   1564(31)     870
      1392.0   1625(32)     871
      1393.6   1570(31)     872
      1395.2   1548(31)     873
      1396.8   1584(31)     874
      1398.4   1582(31)     875
      1400.0   1593(32)     876
      1401.6   1564(31)     877
      1403.2   1588(31)     878
      1404.8   1581(31)     879
      1406.4   1575(31)     880
      1408.0   1558(31)     881
      1409.6   1559(31)     882
      1411.2   1566(31)     883
      1412.8   1651(32)     884
      1414.4   1575(31)     885
      1416.0   1553(31)     886
      1417.6   1523(31)     887
      1419.2   1531(31)     888
      1420.8   1518(31)     889
      1422.4   1546(31)     890
      1424.0   1548(31)     891
      1425.6   1525(31)     892
      1427.2   1523(31)     893
      1428.8   1566(31)     894
      1430.4   1504(31)     895
      1432.0   1596(32)     896
      1433.6   1517(31)     897
      1435.2   1503(31)     898
      1436.8   1553(31)     899
      1438.4   1581(31)     900
      1440.0   1524(31)     901
      1441.6   1537(31)     902
      1443.2   1638(32)     903
      1444.8   1606(32)     904
      1446.4   1599(32)     905
      1448.0   1596(32)     906
      1449.6   1536(31)     907
      1451.2   1587(31)     908
      1452.8   1576(31)     909
      1454.4   1522(31)     910
      1456.0   1548(31)     911
      1457.6   1514(31)     912
      1459.2   1508(31)     913
      1460.8   1513(31)     914
      1462.4   1529(31)     915
      1464.0   1512(31)     916
      1465.6   1533(31)     917
      1467.2   1556(31)     918
      1468.8   1566(31)     919
      1470.4   1575(31)     920
      1472.0   1557(31)     921
      1473.6   1589(32)     922
      1475.2   1551(31)     923
      1476.8   1549(31)     924
      1478.4   1488(30)     925
      1480.0   1471(30)     926
      1481.6   1479(30)     927
      1483.2   1549(31)     928
      1484.8   1473(30)     929
      1486.4   1483(30)     930
      1488.0   1465(30)     931
      1489.6   1456(30)     932
      1491.2   1441(30)     933
      1492.8   1469(30)     934
      1494.4   1469(30)     935
      1496.0   1456(30)     936
      1497.6   1441(30)     937
      1499.2   1451(30)     938
      1500.8   1517(31)     939
      1502.4   1516(31)     940
      1504.0   1543(31)     941
      1505.6   1471(30)     942
      1507.2   1528(31)     943
      1508.8   1532(31)     944
      1510.4   1501(31)     945
      1512.0   1476(30)     946
      1513.6   1449(30)     947
      1515.2   1482(30)     948
      1516.8   1542(31)     949
      1518.4   1538(31)     950
      1520.0   1478(30)     951
      1521.6   1514(31)     952
      1523.2   1481(30)     953
      1524.8   1474(30)     954
      1526.4   1504(31)     955
      1528.0   1508(31)     956
      1529.6   1508(31)     957
      1531.2   1539(31)     958
      1532.8   1544(31)     959
      1534.4   1606(32)     960
      1536.0   1612(32)     961
      1537.6   1542(31)     962
      1539.2   1519(31)     963
      1540.8   1511(31)     964
      1542.4   1531(31)     965
      1544.0   1530(31)     966
      1545.6   1518(31)     967
      1547.2   1464(30)     968
      1548.8   1503(31)     969
      1550.4   1480(30)     970
      1552.0   1506(31)     971
      1553.6   1474(30)     972
      1555.2   1477(30)     973
      1556.8   1461(30)     974
      1558.4   1448(30)     975
      1560.0   1491(31)     976
      1561.6   1415(30)     977
      1563.2   1475(30)     978
      1564.8   1489(31)     979
      1566.4   1482(30)     980
      1568.0   1499(31)     981
      1569.6   1517(31)     982
      1571.2   1596(32)     983
      1572.8   1601(32)     984
      1574.4   1540(31)     985
      1576.0   1506(31)     986
      1577.6   1479(30)     987
      1579.2   1494(31)     988
      1580.8   1468(30)     989
      1582.4   1463(30)     990
      1584.0   1538(31)     991
      1585.6   1490(31)     992
      1587.2   1469(30)     993
      1588.8   1453(30)     994
      1590.4   1488(30)     995
      1592.0   1443(30)     996
      1593.6   1424(30)     997
      1595.2   1383(29)     998
      1596.8   1427(30)     999
      1598.4   1380(29)    1000
      1600.0   1455(30)    1001
      1601.6   1489(31)    1002
      1603.2   1508(31)    1003
      1604.8   1529(31)    1004
      1606.4   1499(31)    1005
      1608.0   1521(31)    1006
      1609.6   1516(31)    1007
      1611.2   1496(31)    1008
      1612.8   1430(30)    1009
      1614.4   1402(30)    1010
      1616.0   1406(30)    1011
      1617.6   1389(29)    1012
      1619.2   1349(29)    1013
      1620.8   1429(30)    1014
      1622.4   1396(30)    1015
      1624.0   1419(30)    1016
      1625.6   1439(30)    1017
      1627.2   1427(30)    1018
      1628.8   1409(30)    1019
      1630.4   1396(30)    1020
      1632.0   1423(30)    1021
      1633.6   1418(30)    1022
      1635.2   1407(30)    1023
      1636.8   1406(30)    1024
      1638.4   1388(29)    1025
      1640.0   1385(29)    1026
      1641.6   1417(30)    1027
      1643.2   1407(30)    1028
      1644.8   1416(30)    1029
      1646.4   1438(30)    1030
      1648.0   1459(30)    1031
      1649.6   1496(31)    1032
      1651.2   1509(31)    1033
      1652.8   1483(30)    1034
      1654.4   1439(30)    1035
      1656.0   1395(30)    1036
      1657.6   1438(30)    1037
      1659.2   1454(30)    1038
      1660.8   1438(30)    1039
      1662.4   1434(30)    1040
      1664.0   1438(30)    1041
      1665.6   1488(30)    1042
      1667.2   1504(31)    1043
      1668.8   1483(30)    1044
      1670.4   1473(30)    1045
      1672.0   1446(30)    1046
      1673.6   1439(30)    1047
      1675.2   1421(30)    1048
      1676.8   1408(30)    1049
      1678.4   1376(29)    1050
      1680.0   1371(29)    1051
      1681.6   1361(29)    1052
      1683.2   1405(30)    1053
      1684.8   1424(30)    1054
      1686.4   1376(29)    1055
      1688.0   1375(29)    1056
      1689.6   1418(30)    1057
      1691.2   1439(30)    1058
      1692.8   1461(30)    1059
      1694.4   1460(30)    1060
      1696.0   1489(31)    1061
      1697.6   1455(30)    1062
      1699.2   1391(29)    1063
      1700.8   1439(30)    1064
      1702.4   1443(30)    1065
      1704.0   1407(30)    1066
      1705.6   1409(30)    1067
      1707.2   1421(30)    1068
      1708.8   1419(30)    1069
      1710.4   1415(30)    1070
      1712.0   1446(30)    1071
      1713.6   1438(30)    1072
      1715.2   1375(29)    1073
      1716.8   1371(29)    1074
      1718.4   1383(29)    1075
      1720.0   1399(30)    1076
      1721.6   1384(29)    1077
      1723.2   1389(29)    1078
      1724.8   1319(29)    1079
      1726.4   1354(29)    1080
      1728.0   1375(29)    1081
      1729.6   1346(29)    1082
      1731.2   1322(29)    1083
      1732.8   1429(30)    1084
      1734.4   1428(30)    1085
      1736.0   1428(30)    1086
      1737.6   1448(30)    1087
      1739.2   1483(30)    1088
      1740.8   1493(31)    1089
      1742.4   1536(31)    1090
      1744.0   1508(31)    1091
      1745.6   1512(31)    1092
      1747.2   1457(30)    1093
      1748.8   1449(30)    1094
      1750.4   1411(30)    1095
      1752.0   1418(30)    1096
      1753.6   1386(29)    1097
      1755.2   1399(30)    1098
      1756.8   1416(30)    1099
      1758.4   1384(29)    1100
      1760.0   1452(30)    1101
      1761.6   1448(30)    1102
      1763.2   1424(30)    1103
      1764.8   1446(30)    1104
      1766.4   1377(29)    1105
      1768.0   1393(30)    1106
      1769.6   1396(30)    1107
      1771.2   1400(30)    1108
      1772.8   1332(29)    1109
      1774.4   1359(29)    1110
      1776.0   1372(29)    1111
      1777.6   1370(29)    1112
      1779.2   1368(29)    1113
      1780.8   1349(29)    1114
      1782.4   1403(30)    1115
      1784.0   1392(29)    1116
      1785.6   1416(30)    1117
      1787.2   1483(30)    1118
      1788.8   1500(31)    1119
      1790.4   1551(31)    1120
      1792.0   1639(32)    1121
      1793.6   1653(32)    1122
      1795.2   1675(32)    1123
      1796.8   1632(32)    1124
      1798.4   1627(32)    1125
      1800.0   1566(31)    1126
      1801.6   1490(31)    1127
      1803.2   1395(30)    1128
      1804.8   1354(29)    1129
      1806.4   1381(29)    1130
      1808.0   1414(30)    1131
      1809.6   1359(29)    1132
      1811.2   1356(29)    1133
      1812.8   1353(29)    1134
      1814.4   1303(29)    1135
      1816.0   1362(29)    1136
      1817.6   1353(29)    1137
      1819.2   1351(29)    1138
      1820.8   1323(29)    1139
      1822.4   1298(28)    1140
      1824.0   1298(28)    1141
      1825.6   1328(29)    1142
      1827.2   1324(29)    1143
      1828.8   1331(29)    1144
      1830.4   1324(29)    1145
      1832.0   1293(28)    1146
      1833.6   1323(29)    1147
      1835.2   1333(29)    1148
      1836.8   1329(29)    1149
      1838.4   1374(29)    1150
      1840.0   1375(29)    1151
      1841.6   1335(29)    1152
      1843.2   1319(29)    1153
      1844.8   1331(29)    1154
      1846.4   1366(29)    1155
      1848.0   1383(29)    1156
      1849.6   1384(29)    1157
      1851.2   1446(30)    1158
      1852.8   1468(30)    1159
      1854.4   1478(30)    1160
      1856.0   1481(30)    1161
      1857.6   1409(30)    1162
      1859.2   1331(29)    1163
      1860.8   1373(29)    1164
      1862.4   1334(29)    1165
      1864.0   1324(29)    1166
      1865.6   1368(29)    1167
      1867.2   1389(29)    1168
      1868.8   1393(30)    1169
      1870.4   1369(29)    1170
      1872.0   1414(30)    1171
      1873.6   1433(30)    1172
      1875.2   1469(30)    1173
      1876.8   1466(30)    1174
      1878.4   1440(30)    1175
      1880.0   1379(29)    1176
      1881.6   1404(30)    1177
      1883.2   1363(29)    1178
      1884.8   1401(30)    1179
      1886.4   1348(29)    1180
      1888.0   1340(29)    1181
      1889.6   1347(29)    1182
      1891.2   1359(29)    1183
      1892.8   1352(29)    1184
      1894.4   1341(29)    1185
      1896.0   1350(29)    1186
      1897.6   1349(29)    1187
      1899.2   1356(29)    1188
      1900.8   1363(29)    1189
      1902.4   1386(29)    1190
      1904.0   1459(30)    1191
      1905.6   1563(31)    1192
      1907.2   1601(32)    1193
      1908.8   1609(32)    1194
      1910.4   1598(32)    1195
      1912.0   1598(32)    1196
      1913.6   1638(32)    1197
      1915.2   1606(32)    1198
      1916.8   1573(31)    1199
      1918.4   1541(31)    1200
      1920.0   1508(31)    1201
      1921.6   1429(30)    1202
      1923.2   1414(30)    1203
      1924.8   1365(29)    1204
      1926.4   1333(29)    1205
      1928.0   1310(29)    1206
      1929.6   1262(28)    1207
      1931.2   1323(29)    1208
      1932.8   1314(29)    1209
      1934.4   1288(28)    1210
      1936.0   1310(29)    1211
      1937.6   1319(29)    1212
      1939.2   1283(28)    1213
      1940.8   1259(28)    1214
      1942.4   1263(28)    1215
      1944.0   1286(28)    1216
      1945.6   1302(29)    1217
      1947.2   1344(29)    1218
      1948.8   1316(29)    1219
      1950.4   1298(28)    1220
      1952.0   1268(28)    1221
      1953.6   1271(28)    1222
      1955.2   1289(28)    1223
      1956.8   1292(28)    1224
      1958.4   1263(28)    1225
      1960.0   1241(28)    1226
      1961.6   1259(28)    1227
      1963.2   1280(28)    1228
      1964.8   1273(28)    1229
      1966.4   1306(29)    1230
      1968.0   1329(29)    1231
      1969.6   1312(29)    1232
      1971.2   1313(29)    1233
      1972.8   1341(29)    1234
      1974.4   1420(30)    1235
      1976.0   1378(29)    1236
      1977.6   1406(30)    1237
      1979.2   1431(30)    1238
      1980.8   1481(30)    1239
      1982.4   1528(31)    1240
      1984.0   1593(32)    1241
      1985.6   1608(32)    1242
      1987.2   1579(31)    1243
      1988.8   1588(32)    1244
      1990.4   1554(31)    1245
      1992.0   1489(31)    1246
      1993.6   1458(30)    1247
      1995.2   1414(30)    1248
      1996.8   1387(29)    1249
      1998.4   1378(29)    1250
      2000.0   1371(29)    1251
      2001.6   1385(29)    1252
      2003.2   1402(30)    1253
      2004.8   1359(29)    1254
      2006.4   1393(30)    1255
      2008.0   1414(30)    1256
      2009.6   1469(30)    1257
      2011.2   1612(32)    1258
      2012.8   1616(32)    1259
      2014.4   1714(33)    1260
      2016.0   1698(33)    1261
      2017.6   1650(32)    1262
      2019.2   1541(31)    1263
      2020.8   1500(31)    1264
      2022.4   1436(30)    1265
      2024.0   1398(30)    1266
      2025.6   1353(29)    1267
      2027.2   1344(29)    1268
      2028.8   1346(29)    1269
      2030.4   1329(29)    1270
      2032.0   1323(29)    1271
      2033.6   1313(29)    1272
      2035.2   1260(28)    1273
      2036.8   1277(28)    1274
      2038.4   1264(28)    1275
      2040.0   1240(28)    1276
      2041.6   1240(28)    1277
      2043.2   1299(28)    1278
      2044.8   1213(28)    1279
      2046.4   1220(28)    1280
      2048.0   1264(28)    1281
      2049.6   1354(29)    1282
      2051.2   1384(29)    1283
      2052.8   1407(30)    1284
      2054.4   1466(30)    1285
      2056.0   1455(30)    1286
      2057.6   1481(30)    1287
      2059.2   1512(31)    1288
      2060.8   1563(31)    1289
      2062.4   1657(32)    1290
      2064.0   1689(32)    1291
      2065.6   1714(33)    1292
      2067.2   1676(32)    1293
      2068.8   1553(31)    1294
      2070.4   1523(31)    1295
      2072.0   1506(31)    1296
      2073.6   1442(30)    1297
      2075.2   1449(30)    1298
      2076.8   1348(29)    1299
      2078.4   1346(29)    1300
      2080.0   1327(29)    1301
      2081.6   1266(28)    1302
      2083.2   1283(28)    1303
      2084.8   1247(28)    1304
      2086.4   1263(28)    1305
      2088.0   1241(28)    1306
      2089.6   1262(28)    1307
      2091.2   1256(28)    1308
      2092.8   1277(28)    1309
      2094.4   1336(29)    1310
      2096.0   1376(29)    1311
      2097.6   1415(30)    1312
      2099.2   1433(30)    1313
      2100.8   1437(30)    1314
      2102.4   1363(29)    1315
      2104.0   1327(29)    1316
      2105.6   1311(29)    1317
      2107.2   1274(28)    1318
      2108.8   1246(28)    1319
      2110.4   1278(28)    1320
      2112.0   1284(28)    1321
      2113.6   1218(28)    1322
      2115.2   1229(28)    1323
      2116.8   1284(28)    1324
      2118.4   1230(28)    1325
      2120.0   1224(28)    1326
      2121.6   1243(28)    1327
      2123.2   1258(28)    1328
      2124.8   1197(27)    1329
      2126.4   1164(27)    1330
      2128.0   1211(28)    1331
      2129.6   1213(28)    1332
      2131.2   1215(28)    1333
      2132.8   1204(27)    1334
      2134.4   1225(28)    1335
      2136.0   1198(27)    1336
      2137.6   1255(28)    1337
      2139.2   1222(28)    1338
      2140.8   1256(28)    1339
      2142.4   1254(28)    1340
      2144.0   1261(28)    1341
      2145.6   1253(28)    1342
      2147.2   1281(28)    1343
      2148.8   1348(29)    1344
      2150.4   1464(30)    1345
      2152.0   1499(31)    1346
      2153.6   1594(32)    1347
      2155.2   1578(31)    1348
      2156.8   1564(31)    1349
      2158.4   1507(31)    1350
      2160.0   1495(31)    1351
      2161.6   1408(30)    1352
      2163.2   1358(29)    1353
      2164.8   1294(28)    1354
      2166.4   1297(28)    1355
      2168.0   1273(28)    1356
      2169.6   1256(28)    1357
      2171.2   1268(28)    1358
      2172.8   1240(28)    1359
      2174.4   1268(28)    1360
      2176.0   1274(28)    1361
      2177.6   1243(28)    1362
      2179.2   1273(28)    1363
      2180.8   1252(28)    1364
      2182.4   1294(28)    1365
      2184.0   1296(28)    1366
      2185.6   1309(29)    1367
      2187.2   1350(29)    1368
      2188.8   1384(29)    1369
      2190.4   1364(29)    1370
      2192.0   1391(29)    1371
      2193.6   1409(30)    1372
      2195.2   1353(29)    1373
      2196.8   1294(28)    1374
      2198.4   1258(28)    1375
      2200.0   1246(28)    1376
      2201.6   1244(28)    1377
      2203.2   1244(28)    1378
      2204.8   1233(28)    1379
      2206.4   1204(27)    1380
      2208.0   1189(27)    1381
      2209.6   1202(27)    1382
      2211.2   1233(28)    1383
      2212.8   1205(27)    1384
      2214.4   1236(28)    1385
      2216.0   1243(28)    1386
      2217.6   1264(28)    1387
      2219.2   1279(28)    1388
      2220.8   1274(28)    1389
      2222.4   1256(28)    1390
      2224.0   1261(28)    1391
      2225.6   1253(28)    1392
      2227.2   1233(28)    1393
      2228.8   1234(28)    1394
      2230.4   1241(28)    1395
      2232.0   1316(29)    1396
      2233.6   1343(29)    1397
      2235.2   1421(30)    1398
      2236.8   1548(31)    1399
      2238.4   1598(32)    1400
      2240.0   1669(32)    1401
      2241.6   1761(33)    1402
      2243.2   1727(33)    1403
      2244.8   1700(33)    1404
      2246.4   1641(32)    1405
      2248.0   1646(32)    1406
      2249.6   1761(33)    1407
      2251.2   1831(34)    1408
      2252.8   1953(35)    1409
      2254.4   1986(35)    1410
      2256.0   2024(36)    1411
      2257.6   1934(35)    1412
      2259.2   1856(34)    1413
      2260.8   1768(33)    1414
      2262.4   1653(32)    1415
      2264.0   1551(31)    1416
      2265.6   1532(31)    1417
      2267.2   1511(31)    1418
      2268.8   1446(30)    1419
      2270.4   1386(29)    1420
      2272.0   1376(29)    1421
      2273.6   1313(29)    1422
      2275.2   1294(28)    1423
      2276.8   1251(28)    1424
      2278.4   1253(28)    1425
      2280.0   1246(28)    1426
      2281.6   1239(28)    1427
      2283.2   1300(29)    1428
      2284.8   1277(28)    1429
      2286.4   1227(28)    1430
      2288.0   1292(28)    1431
      2289.6   1264(28)    1432
      2291.2   1266(28)    1433
      2292.8   1339(29)    1434
      2294.4   1440(30)    1435
      2296.0   1423(30)    1436
      2297.6   1426(30)    1437
      2299.2   1438(30)    1438
      2300.8   1360(29)    1439
      2302.4   1304(29)    1440
      2304.0   1306(29)    1441
      2305.6   1303(29)    1442
      2307.2   1304(29)    1443
      2308.8   1267(28)    1444
      2310.4   1297(28)    1445
      2312.0   1283(28)    1446
      2313.6   1220(28)    1447
      2315.2   1235(28)    1448
      2316.8   1225(28)    1449
      2318.4   1198(27)    1450
      2320.0   1183(27)    1451
      2321.6   1224(28)    1452
      2323.2   1166(27)    1453
      2324.8   1197(27)    1454
      2326.4   1193(27)    1455
      2328.0   1209(27)    1456
      2329.6   1219(28)    1457
      2331.2   1243(28)    1458
      2332.8   1228(28)    1459
      2334.4   1238(28)    1460
      2336.0   1261(28)    1461
      2337.6   1300(29)    1462
      2339.2   1258(28)    1463
      2340.8   1268(28)    1464
      2342.4   1214(28)    1465
      2344.0   1178(27)    1466
      2345.6   1187(27)    1467
      2347.2   1191(27)    1468
      2348.8   1253(28)    1469
      2350.4   1296(28)    1470
      2352.0   1348(29)    1471
      2353.6   1396(30)    1472
      2355.2   1461(30)    1473
      2356.8   1526(31)    1474
      2358.4   1474(30)    1475
      2360.0   1468(30)    1476
      2361.6   1485(30)    1477
      2363.2   1522(31)    1478
      2364.8   1586(31)    1479
      2366.4   1633(32)    1480
      2368.0   1773(33)    1481
      2369.6   1907(35)    1482
      2371.2   1941(35)    1483
      2372.8   1940(35)    1484
      2374.4   1909(35)    1485
      2376.0   1859(34)    1486
      2377.6   1745(33)    1487
      2379.2   1631(32)    1488
      2380.8   1554(31)    1489
      2382.4   1524(31)    1490
      2384.0   1484(30)    1491
      2385.6   1476(30)    1492
      2387.2   1436(30)    1493
      2388.8   1378(29)    1494
      2390.4   1329(29)    1495
      2392.0   1331(29)    1496
      2393.6   1306(29)    1497
      2395.2   1261(28)    1498
      2396.8   1220(28)    1499
      2398.4   1213(28)    1500
      2400.0   1258(28)    1501
      2401.6   1215(28)    1502
      2403.2   1216(28)    1503
      2404.8   1206(27)    1504
      2406.4   1226(28)    1505
      2408.0   1247(28)    1506
      2409.6   1196(27)    1507
      2411.2   1206(27)    1508
      2412.8   1256(28)    1509
      2414.4   1281(28)    1510
      2416.0   1424(30)    1511
      2417.6   1556(31)    1512
      2419.2   1683(32)    1513
      2420.8   1774(33)    1514
      2422.4   1773(33)    1515
      2424.0   1708(33)    1516
      2425.6   1603(32)    1517
      2427.2   1532(31)    1518
      2428.8   1474(30)    1519
      2430.4   1419(30)    1520
      2432.0   1385(29)    1521
      2433.6   1339(29)    1522
      2435.2   1295(28)    1523
      2436.8   1294(28)    1524
      2438.4   1289(28)    1525
      2440.0   1265(28)    1526
      2441.6   1300(29)    1527
      2443.2   1331(29)    1528
      2444.8   1262(28)    1529
      2446.4   1278(28)    1530
      2448.0   1210(28)    1531
      2449.6   1213(28)    1532
      2451.2   1186(27)    1533
      2452.8   1225(28)    1534
      2454.4   1174(27)    1535
      2456.0   1171(27)    1536
      2457.6   1156(27)    1537
      2459.2   1132(27)    1538
      2460.8   1134(27)    1539
      2462.4   1124(27)    1540
      2464.0   1151(27)    1541
      2465.6   1152(27)    1542
      2467.2   1158(27)    1543
      2468.8   1159(27)    1544
      2470.4   1173(27)    1545
      2472.0   1163(27)    1546
      2473.6   1164(27)    1547
      2475.2   1191(27)    1548
      2476.8   1191(27)    1549
      2478.4   1179(27)    1550
      2480.0   1201(27)    1551
      2481.6   1275(28)    1552
      2483.2   1323(29)    1553
      2484.8   1380(29)    1554
      2486.4   1458(30)    1555
      2488.0   1644(32)    1556
      2489.6   1774(33)    1557
      2491.2   1833(34)    1558
      2492.8   1880(34)    1559
      2494.4   1817(34)    1560
      2496.0   1772(33)    1561
      2497.6   1666(32)    1562
      2499.2   1600(32)    1563
      2500.8   1571(31)    1564
      2502.4   1558(31)    1565
      2504.0   1537(31)    1566
      2505.6   1588(32)    1567
      2507.2   1636(32)    1568
      2508.8   1664(32)    1569
      2510.4   1624(32)    1570
      2512.0   1569(31)    1571
      2513.6   1568(31)    1572
      2515.2   1536(31)    1573
      2516.8   1434(30)    1574
      2518.4   1409(30)    1575
      2520.0   1341(29)    1576
      2521.6   1295(28)    1577
      2523.2   1289(28)    1578
      2524.8   1276(28)    1579
      2526.4   1196(27)    1580
      2528.0   1207(27)    1581
      2529.6   1189(27)    1582
      2531.2   1204(27)    1583
      2532.8   1195(27)    1584
      2534.4   1210(28)    1585
      2536.0   1187(27)    1586
      2537.6   1213(28)    1587
      2539.2   1185(27)    1588
      2540.8   1223(28)    1589
      2542.4   1305(29)    1590
      2544.0   1288(28)    1591
      2545.6   1257(28)    1592
      2547.2   1241(28)    1593
      2548.8   1166(27)    1594
      2550.4   1158(27)    1595
      2552.0   1188(27)    1596
      2553.6   1141(27)    1597
      2555.2   1184(27)    1598
      2556.8   1135(27)    1599
      2558.4   1159(27)    1600
      2560.0   1135(27)    1601
      2561.6   1153(27)    1602
      2563.2   1239(28)    1603
      2564.8   1306(29)    1604
      2566.4   1402(30)    1605
      2568.0   1416(30)    1606
      2569.6   1364(29)    1607
      2571.2   1318(29)    1608
      2572.8   1273(28)    1609
      2574.4   1248(28)    1610
      2576.0   1214(28)    1611
      2577.6   1244(28)    1612
      2579.2   1176(27)    1613
      2580.8   1137(27)    1614
      2582.4   1149(27)    1615
      2584.0   1141(27)    1616
      2585.6   1143(27)    1617
      2587.2   1148(27)    1618
      2588.8   1121(26)    1619
      2590.4   1118(26)    1620
      2592.0   1099(26)    1621
      2593.6   1071(26)    1622
      2595.2   1076(26)    1623
      2596.8   1096(26)    1624
      2598.4   1081(26)    1625
      2600.0   1094(26)    1626
      2601.6   1103(26)    1627
      2603.2   1090(26)    1628
      2604.8   1095(26)    1629
      2606.4   1141(27)    1630
      2608.0   1159(27)    1631
      2609.6   1141(27)    1632
      2611.2   1157(27)    1633
      2612.8   1204(27)    1634
      2614.4   1178(27)    1635
      2616.0   1121(26)    1636
      2617.6   1146(27)    1637
      2619.2   1145(27)    1638
      2620.8   1089(26)    1639
      2622.4   1096(26)    1640
      2624.0   1151(27)    1641
      2625.6   1125(27)    1642
      2627.2   1083(26)    1643
      2628.8   1116(26)    1644
      2630.4   1134(27)    1645
      2632.0   1154(27)    1646
      2633.6   1163(27)    1647
      2635.2   1208(27)    1648
      2636.8   1194(27)    1649
      2638.4   1197(27)    1650
      2640.0   1213(28)    1651
      2641.6   1206(27)    1652
      2643.2   1181(27)    1653
      2644.8   1139(27)    1654
      2646.4   1163(27)    1655
      2648.0   1142(27)    1656
      2649.6   1157(27)    1657
      2651.2   1139(27)    1658
      2652.8   1093(26)    1659
      2654.4   1173(27)    1660
      2656.0   1154(27)    1661
      2657.6   1163(27)    1662
      2659.2   1212(28)    1663
      2660.8   1208(27)    1664
      2662.4   1199(27)    1665
      2664.0   1313(29)    1666
      2665.6   1406(30)    1667
      2667.2   1554(31)    1668
      2668.8   1786(33)    1669
      2670.4   2113(36)    1670
      2672.0   2351(38)    1671
      2673.6   2531(40)    1672
      2675.2   2535(40)    1673
      2676.8   2508(40)    1674
      2678.4   2389(39)    1675
      2680.0   2323(38)    1676
      2681.6   2157(37)    1677
      2683.2   2019(36)    1678
      2684.8   2002(35)    1679
      2686.4   1839(34)    1680
      2688.0   1721(33)    1681
      2689.6   1685(32)    1682
      2691.2   1595(32)    1683
      2692.8   1526(31)    1684
      2694.4   1433(30)    1685
      2696.0   1402(30)    1686
      2697.6   1346(29)    1687
      2699.2   1314(29)    1688
      2700.8   1254(28)    1689
      2702.4   1296(28)    1690
      2704.0   1283(28)    1691
      2705.6   1274(28)    1692
      2707.2   1328(29)    1693
      2708.8   1301(29)    1694
      2710.4   1313(29)    1695
      2712.0   1296(28)    1696
      2713.6   1289(28)    1697
      2715.2   1329(29)    1698
      2716.8   1355(29)    1699
      2718.4   1315(29)    1700
      2720.0   1291(28)    1701
      2721.6   1260(28)    1702
      2723.2   1227(28)    1703
      2724.8   1187(27)    1704
      2726.4   1191(27)    1705
      2728.0   1239(28)    1706
      2729.6   1229(28)    1707
      2731.2   1192(27)    1708
      2732.8   1201(27)    1709
      2734.4   1246(28)    1710
      2736.0   1371(29)    1711
      2737.6   1455(30)    1712
      2739.2   1633(32)    1713
      2740.8   1831(34)    1714
      2742.4   1971(35)    1715
      2744.0   2126(36)    1716
      2745.6   2168(37)    1717
      2747.2   2144(37)    1718
      2748.8   2093(36)    1719
      2750.4   1944(35)    1720
      2752.0   1886(34)    1721
      2753.6   1786(33)    1722
      2755.2   1619(32)    1723
      2756.8   1608(32)    1724
      2758.4   1513(31)    1725
      2760.0   1513(31)    1726
      2761.6   1528(31)    1727
      2763.2   1569(31)    1728
      2764.8   1564(31)    1729
      2766.4   1546(31)    1730
      2768.0   1494(31)    1731
      2769.6   1455(30)    1732
      2771.2   1392(29)    1733
      2772.8   1317(29)    1734
      2774.4   1309(29)    1735
      2776.0   1294(28)    1736
      2777.6   1222(28)    1737
      2779.2   1223(28)    1738
      2780.8   1200(27)    1739
      2782.4   1186(27)    1740
      2784.0   1176(27)    1741
      2785.6   1177(27)    1742
      2787.2   1157(27)    1743
      2788.8   1109(26)    1744
      2790.4   1099(26)    1745
      2792.0   1123(26)    1746
      2793.6   1111(26)    1747
      2795.2   1136(27)    1748
      2796.8   1088(26)    1749
      2798.4   1109(26)    1750
      2800.0   1109(26)    1751
      2801.6   1107(26)    1752
      2803.2   1136(27)    1753
      2804.8   1125(27)    1754
      2806.4   1109(26)    1755
      2808.0   1072(26)    1756
      2809.6   1123(26)    1757
      2811.2   1102(26)    1758
      2812.8   1047(26)    1759
      2814.4   1074(26)    1760
      2816.0   1058(26)    1761
      2817.6   1077(26)    1762
      2819.2   1083(26)    1763
      2820.8   1021(25)    1764
      2822.4   1050(26)    1765
      2824.0   1083(26)    1766
      2825.6   1061(26)    1767
      2827.2   1083(26)    1768
      2828.8   1067(26)    1769
      2830.4   1052(26)    1770
      2832.0   1078(26)    1771
      2833.6   1119(26)    1772
      2835.2   1090(26)    1773
      2836.8   1114(26)    1774
      2838.4   1132(27)    1775
      2840.0   1182(27)    1776
      2841.6   1250(28)    1777
      2843.2   1361(29)    1778
      2844.8   1508(31)    1779
      2846.4   1571(31)    1780
      2848.0   1691(33)    1781
      2849.6   1720(33)    1782
      2851.2   1706(33)    1783
      2852.8   1694(33)    1784
      2854.4   1631(32)    1785
      2856.0   1512(31)    1786
      2857.6   1511(31)    1787
      2859.2   1441(30)    1788
      2860.8   1458(30)    1789
      2862.4   1426(30)    1790
      2864.0   1400(30)    1791
      2865.6   1444(30)    1792
      2867.2   1558(31)    1793
      2868.8   1663(32)    1794
      2870.4   1799(34)    1795
      2872.0   1902(34)    1796
      2873.6   2173(37)    1797
      2875.2   2308(38)    1798
      2876.8   2381(39)    1799
      2878.4   2256(38)    1800
      2880.0   2256(38)    1801
      2881.6   2201(37)    1802
      2883.2   2139(37)    1803
      2884.8   2094(36)    1804
      2886.4   1949(35)    1805
      2888.0   1887(34)    1806
      2889.6   1819(34)    1807
      2891.2   1704(33)    1808
      2892.8   1699(33)    1809
      2894.4   1573(31)    1810
      2896.0   1535(31)    1811
      2897.6   1424(30)    1812
      2899.2   1364(29)    1813
      2900.8   1276(28)    1814
      2902.4   1253(28)    1815
      2904.0   1231(28)    1816
      2905.6   1237(28)    1817
      2907.2   1183(27)    1818
      2908.8   1152(27)    1819
      2910.4   1097(26)    1820
      2912.0   1066(26)    1821
      2913.6   1144(27)    1822
      2915.2   1095(26)    1823
      2916.8   1084(26)    1824
      2918.4   1067(26)    1825
      2920.0   1053(26)    1826
      2921.6   1084(26)    1827
      2923.2   1034(25)    1828
      2924.8   996(25)    1829
      2926.4   966(25)    1830
      2928.0   1029(25)    1831
      2929.6   1041(26)    1832
      2931.2   1021(25)    1833
      2932.8   989(25)    1834
      2934.4   996(25)    1835
      2936.0   986(25)    1836
      2937.6   1021(25)    1837
      2939.2   949(24)    1838
      2940.8   972(25)    1839
      2942.4   951(24)    1840
      2944.0   1013(25)    1841
      2945.6   1038(25)    1842
      2947.2   1049(26)    1843
      2948.8   1043(26)    1844
      2950.4   1111(26)    1845
      2952.0   1080(26)    1846
      2953.6   1099(26)    1847
      2955.2   1083(26)    1848
      2956.8   1106(26)    1849
      2958.4   1126(27)    1850
      2960.0   1123(26)    1851
      2961.6   1166(27)    1852
      2963.2   1195(27)    1853
      2964.8   1218(28)    1854
      2966.4   1236(28)    1855
      2968.0   1239(28)    1856
      2969.6   1144(27)    1857
      2971.2   1126(27)    1858
      2972.8   1128(27)    1859
      2974.4   1088(26)    1860
      2976.0   1073(26)    1861
      2977.6   1083(26)    1862
      2979.2   1048(26)    1863
      2980.8   1030(25)    1864
      2982.4   994(25)    1865
      2984.0   1003(25)    1866
      2985.6   1009(25)    1867
      2987.2   988(25)    1868
      2988.8   984(25)    1869
      2990.4   956(24)    1870
      2992.0   959(24)    1871
      2993.6   983(25)    1872
      2995.2   954(24)    1873
      2996.8   927(24)    1874
      2998.4   936(24)    1875
      3000.0   938(24)    1876
      3001.6   948(24)    1877
      3003.2   914(24)    1878
      3004.8   881(23)    1879
      3006.4   899(24)    1880
      3008.0   941(24)    1881
      3009.6   920(24)    1882
      3011.2   912(24)    1883
      3012.8   935(24)    1884
      3014.4   935(24)    1885
      3016.0   931(24)    1886
      3017.6   936(24)    1887
      3019.2   915(24)    1888
      3020.8   932(24)    1889
      3022.4   946(24)    1890
      3024.0   927(24)    1891
      3025.6   902(24)    1892
      3027.2   914(24)    1893
      3028.8   901(24)    1894
      3030.4   888(24)    1895
      3032.0   884(24)    1896
      3033.6   909(24)    1897
      3035.2   888(24)    1898
      3036.8   873(23)    1899
      3038.4   897(24)    1900
      3040.0   924(24)    1901
      3041.6   891(24)    1902
      3043.2   882(23)    1903
      3044.8   904(24)    1904
      3046.4   894(24)    1905
      3048.0   928(24)    1906
      3049.6   933(24)    1907
      3051.2   916(24)    1908
      3052.8   969(25)    1909
      3054.4   976(25)    1910
      3056.0   1009(25)    1911
      3057.6   1098(26)    1912
      3059.2   1074(26)    1913
      3060.8   1051(26)    1914
      3062.4   1092(26)    1915
      3064.0   1086(26)    1916
      3065.6   1048(26)    1917
      3067.2   1012(25)    1918
      3068.8   983(25)    1919
      3070.4   966(25)    1920
      3072.0   944(24)    1921
      3073.6   981(25)    1922
      3075.2   963(25)    1923
      3076.8   979(25)    1924
      3078.4   986(25)    1925
      3080.0   966(25)    1926
      3081.6   954(24)    1927
      3083.2   999(25)    1928
      3084.8   1053(26)    1929
      3086.4   1118(26)    1930
      3088.0   1168(27)    1931
      3089.6   1214(28)    1932
      3091.2   1355(29)    1933
      3092.8   1474(30)    1934
      3094.4   1631(32)    1935
      3096.0   1743(33)    1936
      3097.6   1826(34)    1937
      3099.2   1919(35)    1938
      3100.8   1934(35)    1939
      3102.4   1969(35)    1940
      3104.0   1981(35)    1941
      3105.6   1883(34)    1942
      3107.2   1811(34)    1943
      3108.8   1684(32)    1944
      3110.4   1599(32)    1945
      3112.0   1518(31)    1946
      3113.6   1441(30)    1947
      3115.2   1396(30)    1948
      3116.8   1318(29)    1949
      3118.4   1283(28)    1950
      3120.0   1295(28)    1951
      3121.6   1308(29)    1952
      3123.2   1328(29)    1953
      3124.8   1411(30)    1954
      3126.4   1511(31)    1955
      3128.0   1656(32)    1956
      3129.6   1752(33)    1957
      3131.2   1774(33)    1958
      3132.8   1876(34)    1959
      3134.4   1853(34)    1960
      3136.0   1798(34)    1961
      3137.6   1693(33)    1962
      3139.2   1596(32)    1963
      3140.8   1564(31)    1964
      3142.4   1445(30)    1965
      3144.0   1379(29)    1966
      3145.6   1294(28)    1967
      3147.2   1270(28)    1968
      3148.8   1229(28)    1969
      3150.4   1221(28)    1970
      3152.0   1164(27)    1971
      3153.6   1131(27)    1972
      3155.2   1094(26)    1973
      3156.8   1063(26)    1974
      3158.4   1061(26)    1975
      3160.0   1005(25)    1976
      3161.6   1036(25)    1977
      3163.2   992(25)    1978
      3164.8   963(25)    1979
      3166.4   955(24)    1980
      3168.0   939(24)    1981
      3169.6   945(24)    1982
      3171.2   943(24)    1983
      3172.8   948(24)    1984
      3174.4   970(25)    1985
      3176.0   1015(25)    1986
      3177.6   1067(26)    1987
      3179.2   1115(26)    1988
      3180.8   1146(27)    1989
      3182.4   1093(26)    1990
      3184.0   1083(26)    1991
      3185.6   1048(26)    1992
      3187.2   1059(26)    1993
      3188.8   1061(26)    1994
      3190.4   1038(25)    1995
      3192.0   994(25)    1996
      3193.6   954(24)    1997
      3195.2   990(25)    1998
      3196.8   961(25)    1999
      3198.4   895(24)    2000
      3200.0   878(23)    2001
      3201.6   895(24)    2002
      3203.2   891(24)    2003
      3204.8   884(24)    2004
      3206.4   904(24)    2005
      3208.0   893(24)    2006
      3209.6   873(23)    2007
      3211.2   851(23)    2008
      3212.8   881(23)    2009
      3214.4   882(23)    2010
      3216.0   853(23)    2011
      3217.6   858(23)    2012
      3219.2   849(23)    2013
      3220.8   853(23)    2014
      3222.4   913(24)    2015
      3224.0   942(24)    2016
      3225.6   969(25)    2017
      3227.2   1021(25)    2018
      3228.8   1038(25)    2019
      3230.4   1038(25)    2020
      3232.0   1074(26)    2021
      3233.6   1065(26)    2022
      3235.2   1089(26)    2023
      3236.8   1109(26)    2024
      3238.4   1176(27)    2025
      3240.0   1271(28)    2026
      3241.6   1373(29)    2027
      3243.2   1476(30)    2028
      3244.8   1668(32)    2029
      3246.4   1768(33)    2030
      3248.0   1729(33)    2031
      3249.6   1768(33)    2032
      3251.2   1706(33)    2033
      3252.8   1652(32)    2034
      3254.4   1567(31)    2035
      3256.0   1515(31)    2036
      3257.6   1448(30)    2037
      3259.2   1341(29)    2038
      3260.8   1273(28)    2039
      3262.4   1236(28)    2040
      3264.0   1184(27)    2041
      3265.6   1193(27)    2042
      3267.2   1099(26)    2043
      3268.8   1066(26)    2044
      3270.4   1035(25)    2045
      3272.0   1035(25)    2046
      3273.6   1024(25)    2047
      3275.2   996(25)    2048
      3276.8   967(25)    2049
      3278.4   933(24)    2050
      3280.0   913(24)    2051
      3281.6   895(24)    2052
      3283.2   893(24)    2053
      3284.8   891(24)    2054
      3286.4   899(24)    2055
      3288.0   823(23)    2056
      3289.6   854(23)    2057
      3291.2   875(23)    2058
      3292.8   855(23)    2059
      3294.4   853(23)    2060
      3296.0   818(23)    2061
      3297.6   806(22)    2062
      3299.2   825(23)    2063
      3300.8   819(23)    2064
      3302.4   804(22)    2065
      3304.0   851(23)    2066
      3305.6   803(22)    2067
      3307.2   811(23)    2068
      3308.8   818(23)    2069
      3310.4   839(23)    2070
      3312.0   868(23)    2071
      3313.6   910(24)    2072
      3315.2   904(24)    2073
      3316.8   971(25)    2074
      3318.4   958(24)    2075
      3320.0   958(24)    2076
      3321.6   984(25)    2077
      3323.2   956(24)    2078
      3324.8   927(24)    2079
      3326.4   876(23)    2080
      3328.0   851(23)    2081
      3329.6   885(24)    2082
      3331.2   869(23)    2083
      3332.8   856(23)    2084
      3334.4   826(23)    2085
      3336.0   834(23)    2086
      3337.6   788(22)    2087
      3339.2   795(22)    2088
      3340.8   810(23)    2089
      3342.4   830(23)    2090
      3344.0   797(22)    2091
      3345.6   765(22)    2092
      3347.2   776(22)    2093
      3348.8   766(22)    2094
      3350.4   806(22)    2095
      3352.0   776(22)    2096
      3353.6   794(22)    2097
      3355.2   813(23)    2098
      3356.8   781(22)    2099
      3358.4   783(22)    2100
      3360.0   807(22)    2101
      3361.6   768(22)    2102
      3363.2   798(22)    2103
      3364.8   831(23)    2104
      3366.4   822(23)    2105
      3368.0   834(23)    2106
      3369.6   842(23)    2107
      3371.2   909(24)    2108
      3372.8   911(24)    2109
      3374.4   949(24)    2110
      3376.0   942(24)    2111
      3377.6   906(24)    2112
      3379.2   924(24)    2113
      3380.8   917(24)    2114
      3382.4   911(24)    2115
      3384.0   883(23)    2116
      3385.6   866(23)    2117
      3387.2   822(23)    2118
      3388.8   846(23)    2119
      3390.4   851(23)    2120
      3392.0   842(23)    2121
      3393.6   832(23)    2122
      3395.2   824(23)    2123
      3396.8   789(22)    2124
      3398.4   790(22)    2125
      3400.0   817(23)    2126
      3401.6   837(23)    2127
      3403.2   821(23)    2128
      3404.8   838(23)    2129
      3406.4   882(23)    2130
      3408.0   884(24)    2131
      3409.6   929(24)    2132
      3411.2   935(24)    2133
      3412.8   1066(26)    2134
      3414.4   1224(28)    2135
      3416.0   1399(30)    2136
      3417.6   1554(31)    2137
      3419.2   1731(33)    2138
      3420.8   1895(34)    2139
      3422.4   2006(35)    2140
      3424.0   2033(36)    2141
      3425.6   2025(36)    2142
      3427.2   2016(35)    2143
      3428.8   1888(34)    2144
      3430.4   1783(33)    2145
      3432.0   1709(33)    2146
      3433.6   1658(32)    2147
      3435.2   1605(32)    2148
      3436.8   1474(30)    2149
      3438.4   1416(30)    2150
      3440.0   1319(29)    2151
      3441.6   1224(28)    2152
      3443.2   1223(28)    2153
      3444.8   1171(27)    2154
      3446.4   1124(27)    2155
      3448.0   1106(26)    2156
      3449.6   1116(26)    2157
      3451.2   1093(26)    2158
      3452.8   1077(26)    2159
      3454.4   1060(26)    2160
      3456.0   1106(26)    2161
      3457.6   1147(27)    2162
      3459.2   1222(28)    2163
      3460.8   1321(29)    2164
      3462.4   1551(31)    2165
      3464.0   1813(34)    2166
      3465.6   2050(36)    2167
      3467.2   2458(39)    2168
      3468.8   2721(41)    2169
      3470.4   3058(44)    2170
      3472.0   3238(45)    2171
      3473.6   3261(45)    2172
      3475.2   3113(44)    2173
      3476.8   2984(43)    2174
      3478.4   2764(42)    2175
      3480.0   2562(40)    2176
      3481.6   2457(39)    2177
      3483.2   2264(38)    2178
      3484.8   2129(36)    2179
      3486.4   1917(35)    2180
      3488.0   1799(34)    2181
      3489.6   1676(32)    2182
      3491.2   1569(31)    2183
      3492.8   1467(30)    2184
      3494.4   1381(29)    2185
      3496.0   1383(29)    2186
      3497.6   1321(29)    2187
      3499.2   1227(28)    2188
      3500.8   1203(27)    2189
      3502.4   1115(26)    2190
      3504.0   1034(25)    2191
      3505.6   999(25)    2192
      3507.2   994(25)    2193
      3508.8   989(25)    2194
      3510.4   933(24)    2195
      3512.0   923(24)    2196
      3513.6   893(24)    2197
      3515.2   886(24)    2198
      3516.8   847(23)    2199
      3518.4   839(23)    2200
      3520.0   818(23)    2201
      3521.6   825(23)    2202
      3523.2   871(23)    2203
      3524.8   782(22)    2204
      3526.4   766(22)    2205
      3528.0   751(22)    2206
      3529.6   798(22)    2207
      3531.2   839(23)    2208
      3532.8   844(23)    2209
      3534.4   861(23)    2210
      3536.0   876(23)    2211
      3537.6   902(24)    2212
      3539.2   938(24)    2213
      3540.8   930(24)    2214
      3542.4   908(24)    2215
      3544.0   874(23)    2216
      3545.6   844(23)    2217
      3547.2   829(23)    2218
      3548.8   802(22)    2219
      3550.4   764(22)    2220
      3552.0   763(22)    2221
      3553.6   740(22)    2222
      3555.2   764(22)    2223
      3556.8   769(22)    2224
      3558.4   763(22)    2225
      3560.0   708(21)    2226
      3561.6   694(21)    2227
      3563.2   726(21)    2228
      3564.8   685(21)    2229
      3566.4   701(21)    2230
      3568.0   706(21)    2231
      3569.6   694(21)    2232
      3571.2   687(21)    2233
      3572.8   711(21)    2234
      3574.4   682(21)    2235
      3576.0   677(21)    2236
      3577.6   641(20)    2237
      3579.2   631(20)    2238
      3580.8   655(20)    2239
      3582.4   649(20)    2240
      3584.0   660(20)    2241
      3585.6   681(21)    2242
      3587.2   625(20)    2243
      3588.8   629(20)    2244
      3590.4   633(20)    2245
      3592.0   650(20)    2246
      3593.6   660(20)    2247
      3595.2   641(20)    2248
      3596.8   619(20)    2249
      3598.4   656(20)    2250
      3600.0   613(20)    2251
      3601.6   619(20)    2252
      3603.2   654(20)    2253
      3604.8   608(19)    2254
      3606.4   602(19)    2255
      3608.0   628(20)    2256
      3609.6   617(20)    2257
      3611.2   637(20)    2258
      3612.8   633(20)    2259
      3614.4   634(20)    2260
      3616.0   668(20)    2261
      3617.6   664(20)    2262
      3619.2   696(21)    2263
      3620.8   773(22)    2264
      3622.4   802(22)    2265
      3624.0   908(24)    2266
      3625.6   1005(25)    2267
      3627.2   1065(26)    2268
      3628.8   1116(26)    2269
      3630.4   1134(27)    2270
      3632.0   1174(27)    2271
      3633.6   1189(27)    2272
      3635.2   1144(27)    2273
      3636.8   1113(26)    2274
      3638.4   1074(26)    2275
      3640.0   1052(26)    2276
      3641.6   1000(25)    2277
      3643.2   939(24)    2278
      3644.8   939(24)    2279
      3646.4   933(24)    2280
      3648.0   931(24)    2281
      3649.6   979(25)    2282
      3651.2   979(25)    2283
      3652.8   984(25)    2284
      3654.4   929(24)    2285
      3656.0   956(24)    2286
      3657.6   957(24)    2287
      3659.2   934(24)    2288
      3660.8   859(23)    2289
      3662.4   801(22)    2290
      3664.0   793(22)    2291
      3665.6   801(22)    2292
      3667.2   749(22)    2293
      3668.8   766(22)    2294
      3670.4   709(21)    2295
      3672.0   701(21)    2296
      3673.6   663(20)    2297
      3675.2   667(20)    2298
      3676.8   639(20)    2299
      3678.4   657(20)    2300
      3680.0   637(20)    2301
      3681.6   629(20)    2302
      3683.2   621(20)    2303
      3684.8   596(19)    2304
      3686.4   611(20)    2305
      3688.0   599(19)    2306
      3689.6   610(20)    2307
      3691.2   580(19)    2308
      3692.8   574(19)    2309
      3694.4   599(19)    2310
      3696.0   574(19)    2311
      3697.6   590(19)    2312
      3699.2   596(19)    2313
      3700.8   570(19)    2314
      3702.4   552(19)    2315
      3704.0   550(19)    2316
      3705.6   561(19)    2317
      3707.2   568(19)    2318
      3708.8   578(19)    2319
      3710.4   555(19)    2320
      3712.0   560(19)    2321
      3713.6   576(19)    2322
      3715.2   566(19)    2323
      3716.8   556(19)    2324
      3718.4   579(19)    2325
      3720.0   569(19)    2326
      3721.6   655(20)    2327
      3723.2   684(21)    2328
      3724.8   738(21)    2329
      3726.4   812(23)    2330
      3728.0   843(23)    2331
      3729.6   866(23)    2332
      3731.2   870(23)    2333
      3732.8   858(23)    2334
      3734.4   864(23)    2335
      3736.0   824(23)    2336
      3737.6   757(22)    2337
      3739.2   804(22)    2338
      3740.8   721(21)    2339
      3742.4   673(21)    2340
      3744.0   701(21)    2341
      3745.6   674(21)    2342
      3747.2   654(20)    2343
      3748.8   647(20)    2344
      3750.4   616(20)    2345
      3752.0   611(20)    2346
      3753.6   597(19)    2347
      3755.2   590(19)    2348
      3756.8   591(19)    2349
      3758.4   620(20)    2350
      3760.0   597(19)    2351
      3761.6   571(19)    2352
      3763.2   556(19)    2353
      3764.8   566(19)    2354
      3766.4   566(19)    2355
      3768.0   609(20)    2356
      3769.6   569(19)    2357
      3771.2   552(19)    2358
      3772.8   568(19)    2359
      3774.4   571(19)    2360
      3776.0   575(19)    2361
      3777.6   539(18)    2362
      3779.2   532(18)    2363
      3780.8   528(18)    2364
      3782.4   509(18)    2365
      3784.0   540(18)    2366
      3785.6   529(18)    2367
      3787.2   511(18)    2368
      3788.8   504(18)    2369
      3790.4   523(18)    2370
      3792.0   514(18)    2371
      3793.6   546(18)    2372
      3795.2   503(18)    2373
      3796.8   494(18)    2374
      3798.4   521(18)    2375
      3800.0   519(18)    2376
      3801.6   523(18)    2377
      3803.2   562(19)    2378
      3804.8   547(18)    2379
      3806.4   508(18)    2380
      3808.0   524(18)    2381
      3809.6   500(18)    2382
      3811.2   491(18)    2383
      3812.8   506(18)    2384
      3814.4   516(18)    2385
      3816.0   523(18)    2386
      3817.6   501(18)    2387
      3819.2   514(18)    2388
      3820.8   517(18)    2389
      3822.4   501(18)    2390
      3824.0   517(18)    2391
      3825.6   523(18)    2392
      3827.2   524(18)    2393
      3828.8   514(18)    2394
      3830.4   513(18)    2395
      3832.0   501(18)    2396
      3833.6   482(17)    2397
      3835.2   515(18)    2398
      3836.8   488(17)    2399
      3838.4   486(17)    2400
      3840.0   508(18)    2401
      3841.6   514(18)    2402
      3843.2   496(18)    2403
      3844.8   501(18)    2404
      3846.4   509(18)    2405
      3848.0   493(18)    2406
      3849.6   488(17)    2407
      3851.2   502(18)    2408
      3852.8   514(18)    2409
      3854.4   492(18)    2410
      3856.0   518(18)    2411
      3857.6   525(18)    2412
      3859.2   548(18)    2413
      3860.8   584(19)    2414
      3862.4   595(19)    2415
      3864.0   567(19)    2416
      3865.6   635(20)    2417
      3867.2   619(20)    2418
      3868.8   633(20)    2419
      3870.4   617(20)    2420
      3872.0   604(19)    2421
      3873.6   591(19)    2422
      3875.2   580(19)    2423
      3876.8   558(19)    2424
      3878.4   552(19)    2425
      3880.0   530(18)    2426
      3881.6   524(18)    2427
      3883.2   526(18)    2428
      3884.8   547(18)    2429
      3886.4   551(19)    2430
      3888.0   494(18)    2431
      3889.6   496(18)    2432
      3891.2   489(17)    2433
      3892.8   496(18)    2434
      3894.4   504(18)    2435
      3896.0   513(18)    2436
      3897.6   509(18)    2437
      3899.2   519(18)    2438
      3900.8   527(18)    2439
      3902.4   516(18)    2440
      3904.0   493(18)    2441
      3905.6   526(18)    2442
      3907.2   493(18)    2443
      3908.8   489(17)    2444
      3910.4   484(17)    2445
      3912.0   493(18)    2446
      3913.6   518(18)    2447
      3915.2   509(18)    2448
      3916.8   501(18)    2449
      3918.4   524(18)    2450
      3920.0   496(18)    2451
      3921.6   501(18)    2452
      3923.2   516(18)    2453
      3924.8   513(18)    2454
      3926.4   501(18)    2455
      3928.0   539(18)    2456
      3929.6   534(18)    2457
      3931.2   538(18)    2458
      3932.8   572(19)    2459
      3934.4   613(20)    2460
      3936.0   664(20)    2461
      3937.6   704(21)    2462
      3939.2   800(22)    2463
      3940.8   906(24)    2464
      3942.4   1067(26)    2465
      3944.0   1256(28)    2466
      3945.6   1451(30)    2467
      3947.2   1663(32)    2468
      3948.8   1899(34)    2469
      3950.4   2099(36)    2470
      3952.0   2160(37)    2471
      3953.6   2203(37)    2472
      3955.2   2186(37)    2473
      3956.8   2171(37)    2474
      3958.4   2101(36)    2475
      3960.0   1979(35)    2476
      3961.6   1860(34)    2477
      3963.2   1704(33)    2478
      3964.8   1594(32)    2479
      3966.4   1420(30)    2480
      3968.0   1401(30)    2481
      3969.6   1286(28)    2482
      3971.2   1236(28)    2483
      3972.8   1182(27)    2484
      3974.4   1061(26)    2485
      3976.0   1004(25)    2486
      3977.6   933(24)    2487
      3979.2   878(23)    2488
      3980.8   834(23)    2489
      3982.4   813(23)    2490
      3984.0   772(22)    2491
      3985.6   748(22)    2492
      3987.2   714(21)    2493
      3988.8   686(21)    2494
      3990.4   667(20)    2495
      3992.0   648(20)    2496
      3993.6   597(19)    2497
      3995.2   608(19)    2498
      3996.8   598(19)    2499
      3998.4   579(19)    2500
      4000.0   544(18)    2501
      4001.6   559(19)    2502
      4003.2   558(19)    2503
      4004.8   518(18)    2504
      4006.4   537(18)    2505
      4008.0   556(19)    2506
      4009.6   517(18)    2507
      4011.2   500(18)    2508
      4012.8   465(17)    2509
      4014.4   512(18)    2510
      4016.0   519(18)    2511
      4017.6   478(17)    2512
      4019.2   491(18)    2513
      4020.8   485(17)    2514
      4022.4   474(17)    2515
      4024.0   485(17)    2516
      4025.6   499(18)    2517
      4027.2   471(17)    2518
      4028.8   474(17)    2519
      4030.4   469(17)    2520
      4032.0   467(17)    2521
      4033.6   471(17)    2522
      4035.2   479(17)    2523
      4036.8   421(16)    2524
      4038.4   458(17)    2525
      4040.0   441(17)    2526
      4041.6   442(17)    2527
      4043.2   441(17)    2528
      4044.8   449(17)    2529
      4046.4   431(16)    2530
      4048.0   446(17)    2531
      4049.6   439(17)    2532
      4051.2   429(16)    2533
      4052.8   398(16)    2534
      4054.4   439(17)    2535
      4056.0   439(17)    2536
      4057.6   446(17)    2537
      4059.2   444(17)    2538
      4060.8   422(16)    2539
      4062.4   483(17)    2540
      4064.0   419(16)    2541
      4065.6   429(16)    2542
      4067.2   439(17)    2543
      4068.8   433(16)    2544
      4070.4   406(16)    2545
      4072.0   417(16)    2546
      4073.6   429(16)    2547
      4075.2   441(17)    2548
      4076.8   444(17)    2549
      4078.4   459(17)    2550
      4080.0   419(16)    2551
      4081.6   399(16)    2552
      4083.2   453(17)    2553
      4084.8   431(16)    2554
      4086.4   414(16)    2555
      4088.0   454(17)    2556
      4089.6   401(16)    2557
      4091.2   424(16)    2558
      4092.8   424(16)    2559
      4094.4   409(16)    2560
      4096.0   448(17)    2561
      4097.6   452(17)    2562
      4099.2   426(16)    2563
      4100.8   409(16)    2564
      4102.4   416(16)    2565
      4104.0   419(16)    2566
      4105.6   419(16)    2567
      4107.2   436(17)    2568
      4108.8   451(17)    2569
      4110.4   534(18)    2570
      4112.0   563(19)    2571
      4113.6   612(20)    2572
      4115.2   682(21)    2573
      4116.8   728(21)    2574
      4118.4   777(22)    2575
      4120.0   876(23)    2576
      4121.6   788(22)    2577
      4123.2   756(22)    2578
      4124.8   735(21)    2579
      4126.4   718(21)    2580
      4128.0   665(20)    2581
      4129.6   683(21)    2582
      4131.2   669(20)    2583
      4132.8   593(19)    2584
      4134.4   571(19)    2585
      4136.0   546(18)    2586
      4137.6   539(18)    2587
      4139.2   564(19)    2588
      4140.8   546(18)    2589
      4142.4   515(18)    2590
      4144.0   526(18)    2591
      4145.6   476(17)    2592
      4147.2   474(17)    2593
      4148.8   471(17)    2594
      4150.4   465(17)    2595
      4152.0   447(17)    2596
      4153.6   464(17)    2597
      4155.2   485(17)    2598
      4156.8   428(16)    2599
      4158.4   438(17)    2600
      4160.0   433(16)    2601
      4161.6   435(16)    2602
      4163.2   438(17)    2603
      4164.8   443(17)    2604
      4166.4   458(17)    2605
      4168.0   451(17)    2606
      4169.6   436(17)    2607
      4171.2   439(17)    2608
      4172.8   463(17)    2609
      4174.4   516(18)    2610
      4176.0   579(19)    2611
      4177.6   615(20)    2612
      4179.2   704(21)    2613
      4180.8   761(22)    2614
      4182.4   937(24)    2615
      4184.0   1099(26)    2616
      4185.6   1268(28)    2617
      4187.2   1448(30)    2618
      4188.8   1596(32)    2619
      4190.4   1663(32)    2620
      4192.0   1788(33)    2621
      4193.6   1771(33)    2622
      4195.2   1746(33)    2623
      4196.8   1658(32)    2624
      4198.4   1597(32)    2625
      4200.0   1493(31)    2626
      4201.6   1441(30)    2627
      4203.2   1336(29)    2628
      4204.8   1236(28)    2629
      4206.4   1208(27)    2630
      4208.0   1151(27)    2631
      4209.6   1049(26)    2632
      4211.2   985(25)    2633
      4212.8   892(24)    2634
      4214.4   831(23)    2635
      4216.0   821(23)    2636
      4217.6   816(23)    2637
      4219.2   832(23)    2638
      4220.8   885(24)    2639
      4222.4   903(24)    2640
      4224.0   973(25)    2641
      4225.6   1046(26)    2642
      4227.2   1051(26)    2643
      4228.8   1042(26)    2644
      4230.4   1061(26)    2645
      4232.0   1029(25)    2646
      4233.6   951(24)    2647
      4235.2   895(24)    2648
      4236.8   830(23)    2649
      4238.4   812(23)    2650
      4240.0   791(22)    2651
      4241.6   737(21)    2652
      4243.2   683(21)    2653
      4244.8   643(20)    2654
      4246.4   630(20)    2655
      4248.0   616(20)    2656
      4249.6   576(19)    2657
      4251.2   548(19)    2658
      4252.8   535(18)    2659
      4254.4   529(18)    2660
      4256.0   486(17)    2661
      4257.6   504(18)    2662
      4259.2   463(17)    2663
      4260.8   465(17)    2664
      4262.4   454(17)    2665
      4264.0   442(17)    2666
      4265.6   428(16)    2667
      4267.2   418(16)    2668
      4268.8   416(16)    2669
      4270.4   411(16)    2670
      4272.0   407(16)    2671
      4273.6   394(16)    2672
      4275.2   382(15)    2673
      4276.8   398(16)    2674
      4278.4   381(15)    2675
      4280.0   376(15)    2676
      4281.6   354(15)    2677
      4283.2   411(16)    2678
      4284.8   395(16)    2679
      4286.4   399(16)    2680
      4288.0   378(15)    2681
      4289.6   370(15)    2682
      4291.2   368(15)    2683
      4292.8   358(15)    2684
      4294.4   348(15)    2685
      4296.0   353(15)    2686
      4297.6   374(15)    2687
      4299.2   379(15)    2688
      4300.8   353(15)    2689
      4302.4   344(15)    2690
      4304.0   359(15)    2691
      4305.6   369(15)    2692
      4307.2   356(15)    2693
      4308.8   374(15)    2694
      4310.4   353(15)    2695
      4312.0   349(15)    2696
      4313.6   348(15)    2697
      4315.2   349(15)    2698
      4316.8   330(14)    2699
      4318.4   318(14)    2700
      4320.0   346(15)    2701
      4321.6   341(15)    2702
      4323.2   351(15)    2703
      4324.8   343(15)    2704
      4326.4   329(14)    2705
      4328.0   334(14)    2706
      4329.6   329(14)    2707
      4331.2   337(15)    2708
      4332.8   339(15)    2709
      4334.4   357(15)    2710
      4336.0   349(15)    2711
      4337.6   354(15)    2712
      4339.2   326(14)    2713
      4340.8   358(15)    2714
      4342.4   347(15)    2715
      4344.0   315(14)    2716
      4345.6   331(14)    2717
      4347.2   314(14)    2718
      4348.8   333(14)    2719
      4350.4   335(14)    2720
      4352.0   344(15)    2721
      4353.6   329(14)    2722
      4355.2   336(14)    2723
      4356.8   329(14)    2724
      4358.4   318(14)    2725
      4360.0   340(15)    2726
      4361.6   354(15)    2727
      4363.2   361(15)    2728
      4364.8   333(14)    2729
      4366.4   321(14)    2730
      4368.0   345(15)    2731
      4369.6   328(14)    2732
      4371.2   342(15)    2733
      4372.8   338(15)    2734
      4374.4   325(14)    2735
      4376.0   312(14)    2736
      4377.6   311(14)    2737
      4379.2   306(14)    2738
      4380.8   287(13)    2739
      4382.4   333(14)    2740
      4384.0   349(15)    2741
      4385.6   327(14)    2742
      4387.2   326(14)    2743
      4388.8   302(14)    2744
      4390.4   297(14)    2745
      4392.0   311(14)    2746
      4393.6   317(14)    2747
      4395.2   314(14)    2748
      4396.8   332(14)    2749
      4398.4   334(14)    2750
      4400.0   326(14)    2751
      4401.6   325(14)    2752
      4403.2   319(14)    2753
      4404.8   316(14)    2754
      4406.4   325(14)    2755
      4408.0   306(14)    2756
      4409.6   312(14)    2757
      4411.2   323(14)    2758
      4412.8   316(14)    2759
      4414.4   317(14)    2760
      4416.0   338(15)    2761
      4417.6   330(14)    2762
      4419.2   362(15)    2763
      4420.8   378(15)    2764
      4422.4   431(16)    2765
      4424.0   442(17)    2766
      4425.6   503(18)    2767
      4427.2   544(18)    2768
      4428.8   581(19)    2769
      4430.4   591(19)    2770
      4432.0   607(19)    2771
      4433.6   582(19)    2772
      4435.2   573(19)    2773
      4436.8   543(18)    2774
      4438.4   535(18)    2775
      4440.0   523(18)    2776
      4441.6   484(17)    2777
      4443.2   450(17)    2778
      4444.8   470(17)    2779
      4446.4   426(16)    2780
      4448.0   401(16)    2781
      4449.6   409(16)    2782
      4451.2   399(16)    2783
      4452.8   393(16)    2784
      4454.4   402(16)    2785
      4456.0   376(15)    2786
      4457.6   379(15)    2787
      4459.2   389(16)    2788
      4460.8   364(15)    2789
      4462.4   346(15)    2790
      4464.0   348(15)    2791
      4465.6   344(15)    2792
      4467.2   329(14)    2793
      4468.8   309(14)    2794
      4470.4   321(14)    2795
      4472.0   336(14)    2796
      4473.6   336(14)    2797
      4475.2   316(14)    2798
      4476.8   309(14)    2799
      4478.4   330(14)    2800
      4480.0   322(14)    2801
      4481.6   304(14)    2802
      4483.2   301(14)    2803
      4484.8   298(14)    2804
      4486.4   304(14)    2805
      4488.0   304(14)    2806
      4489.6   294(14)    2807
      4491.2   303(14)    2808
      4492.8   309(14)    2809
      4494.4   298(14)    2810
      4496.0   311(14)    2811
      4497.6   301(14)    2812
      4499.2   311(14)    2813
      4500.8   302(14)    2814
      4502.4   297(14)    2815
      4504.0   288(13)    2816
      4505.6   283(13)    2817
      4507.2   285(13)    2818
      4508.8   296(14)    2819
      4510.4   302(14)    2820
      4512.0   291(13)    2821
      4513.6   300(14)    2822
      4515.2   294(14)    2823
      4516.8   294(14)    2824
      4518.4   301(14)    2825
      4520.0   292(14)    2826
      4521.6   283(13)    2827
      4523.2   286(13)    2828
      4524.8   311(14)    2829
      4526.4   300(14)    2830
      4528.0   297(14)    2831
      4529.6   294(14)    2832
      4531.2   283(13)    2833
      4532.8   295(14)    2834
      4534.4   293(14)    2835
      4536.0   299(14)    2836
      4537.6   301(14)    2837
      4539.2   289(13)    2838
      4540.8   276(13)    2839
      4542.4   285(13)    2840
      4544.0   291(13)    2841
      4545.6   308(14)    2842
      4547.2   301(14)    2843
      4548.8   308(14)    2844
      4550.4   311(14)    2845
      4552.0   292(14)    2846
      4553.6   303(14)    2847
      4555.2   309(14)    2848
      4556.8   323(14)    2849
      4558.4   338(15)    2850
      4560.0   351(15)    2851
      4561.6   386(16)    2852
      4563.2   393(16)    2853
      4564.8   422(16)    2854
      4566.4   426(16)    2855
      4568.0   422(16)    2856
      4569.6   457(17)    2857
      4571.2   478(17)    2858
      4572.8   481(17)    2859
      4574.4   491(18)    2860
      4576.0   567(19)    2861
      4577.6   640(20)    2862
      4579.2   729(21)    2863
      4580.8   858(23)    2864
      4582.4   983(25)    2865
      4584.0   1156(27)    2866
      4585.6   1335(29)    2867
      4587.2   1451(30)    2868
      4588.8   1580(31)    2869
      4590.4   1684(32)    2870
      4592.0   1744(33)    2871
      4593.6   1723(33)    2872
      4595.2   1667(32)    2873
      4596.8   1631(32)    2874
      4598.4   1546(31)    2875
      4600.0   1445(30)    2876
      4601.6   1480(30)    2877
      4603.2   1359(29)    2878
      4604.8   1226(28)    2879
      4606.4   1109(26)    2880
      4608.0   1082(26)    2881
      4609.6   1018(25)    2882
      4611.2   951(24)    2883
      4612.8   863(23)    2884
      4614.4   802(22)    2885
      4616.0   751(22)    2886
      4617.6   701(21)    2887
      4619.2   659(20)    2888
      4620.8   628(20)    2889
      4622.4   563(19)    2890
      4624.0   568(19)    2891
      4625.6   534(18)    2892
      4627.2   495(18)    2893
      4628.8   497(18)    2894
      4630.4   458(17)    2895
      4632.0   445(17)    2896
      4633.6   455(17)    2897
      4635.2   411(16)    2898
      4636.8   393(16)    2899
      4638.4   371(15)    2900
      4640.0   353(15)    2901
      4641.6   348(15)    2902
      4643.2   352(15)    2903
      4644.8   332(14)    2904
      4646.4   348(15)    2905
      4648.0   309(14)    2906
      4649.6   309(14)    2907
      4651.2   320(14)    2908
      4652.8   307(14)    2909
      4654.4   305(14)    2910
      4656.0   298(14)    2911
      4657.6   303(14)    2912
      4659.2   284(13)    2913
      4660.8   300(14)    2914
      4662.4   303(14)    2915
      4664.0   308(14)    2916
      4665.6   293(14)    2917
      4667.2   296(14)    2918
      4668.8   299(14)    2919
      4670.4   298(14)    2920
      4672.0   304(14)    2921
      4673.6   312(14)    2922
      4675.2   295(14)    2923
      4676.8   301(14)    2924
      4678.4   300(14)    2925
      4680.0   277(13)    2926
      4681.6   302(14)    2927
      4683.2   289(13)    2928
      4684.8   305(14)    2929
      4686.4   293(14)    2930
      4688.0   329(14)    2931
      4689.6   363(15)    2932
      4691.2   394(16)    2933
      4692.8   409(16)    2934
      4694.4   444(17)    2935
      4696.0   557(19)    2936
      4697.6   646(20)    2937
      4699.2   756(22)    2938
      4700.8   880(23)    2939
      4702.4   1051(26)    2940
      4704.0   1238(28)    2941
      4705.6   1369(29)    2942
      4707.2   1486(30)    2943
      4708.8   1614(32)    2944
      4710.4   1649(32)    2945
      4712.0   1729(33)    2946
      4713.6   1744(33)    2947
      4715.2   1663(32)    2948
      4716.8   1586(31)    2949
      4718.4   1503(31)    2950
      4720.0   1429(30)    2951
      4721.6   1347(29)    2952
      4723.2   1265(28)    2953
      4724.8   1204(27)    2954
      4726.4   1076(26)    2955
      4728.0   996(25)    2956
      4729.6   928(24)    2957
      4731.2   874(23)    2958
      4732.8   812(23)    2959
      4734.4   776(22)    2960
      4736.0   698(21)    2961
      4737.6   644(20)    2962
      4739.2   608(19)    2963
      4740.8   571(19)    2964
      4742.4   548(19)    2965
      4744.0   531(18)    2966
      4745.6   455(17)    2967
      4747.2   438(17)    2968
      4748.8   423(16)    2969
      4750.4   423(16)    2970
      4752.0   387(16)    2971
      4753.6   388(16)    2972
      4755.2   369(15)    2973
      4756.8   359(15)    2974
      4758.4   329(14)    2975
      4760.0   318(14)    2976
      4761.6   324(14)    2977
      4763.2   325(14)    2978
      4764.8   310(14)    2979
      4766.4   317(14)    2980
      4768.0   310(14)    2981
      4769.6   276(13)    2982
      4771.2   276(13)    2983
      4772.8   279(13)    2984
      4774.4   284(13)    2985
      4776.0   266(13)    2986
      4777.6   283(13)    2987
      4779.2   258(13)    2988
      4780.8   282(13)    2989
      4782.4   276(13)    2990
      4784.0   261(13)    2991
      4785.6   259(13)    2992
      4787.2   229(12)    2993
      4788.8   233(12)    2994
      4790.4   246(12)    2995
      4792.0   241(12)    2996
      4793.6   241(12)    2997
      4795.2   271(13)    2998
      4796.8   264(13)    2999
      4798.4   243(12)    3000
      4800.0   249(12)    3001
      4801.6   249(12)    3002
      4803.2   239(12)    3003
      4804.8   256(13)    3004
      4806.4   238(12)    3005
      4808.0   249(12)    3006
      4809.6   246(12)    3007
      4811.2   253(13)    3008
      4812.8   250(13)    3009
      4814.4   274(13)    3010
      4816.0   289(13)    3011
      4817.6   298(14)    3012
      4819.2   323(14)    3013
      4820.8   349(15)    3014
      4822.4   370(15)    3015
      4824.0   386(16)    3016
      4825.6   382(15)    3017
      4827.2   389(16)    3018
      4828.8   347(15)    3019
      4830.4   340(15)    3020
      4832.0   348(15)    3021
      4833.6   336(14)    3022
      4835.2   336(14)    3023
      4836.8   318(14)    3024
      4838.4   306(14)    3025
      4840.0   296(14)    3026
      4841.6   286(13)    3027
      4843.2   276(13)    3028
      4844.8   281(13)    3029
      4846.4   268(13)    3030
      4848.0   266(13)    3031
      4849.6   254(13)    3032
      4851.2   251(13)    3033
      4852.8   257(13)    3034
      4854.4   268(13)    3035
      4856.0   242(12)    3036
      4857.6   237(12)    3037
      4859.2   230(12)    3038
      4860.8   226(12)    3039
      4862.4   238(12)    3040
      4864.0   222(12)    3041
      4865.6   216(12)    3042
      4867.2   221(12)    3043
      4868.8   238(12)    3044
      4870.4   234(12)    3045
      4872.0   236(12)    3046
      4873.6   213(12)    3047
      4875.2   221(12)    3048
      4876.8   234(12)    3049
      4878.4   222(12)    3050
      4880.0   221(12)    3051
      4881.6   219(12)    3052
      4883.2   214(12)    3053
      4884.8   221(12)    3054
      4886.4   227(12)    3055
      4888.0   219(12)    3056
      4889.6   218(12)    3057
      4891.2   222(12)    3058
      4892.8   202(11)    3059
      4894.4   209(11)    3060
      4896.0   213(12)    3061
      4897.6   202(11)    3062
      4899.2   209(11)    3063
      4900.8   184(11)    3064
      4902.4   198(11)    3065
      4904.0   216(12)    3066
      4905.6   227(12)    3067
      4907.2   196(11)    3068
      4908.8   205(11)    3069
      4910.4   229(12)    3070
      4912.0   218(12)    3071
      4913.6   206(11)    3072
      4915.2   199(11)    3073
      4916.8   213(12)    3074
      4918.4   199(11)    3075
      4920.0   206(11)    3076
      4921.6   215(12)    3077
      4923.2   211(11)    3078
      4924.8   202(11)    3079
      4926.4   206(11)    3080
      4928.0   202(11)    3081
      4929.6   207(11)    3082
      4931.2   220(12)    3083
      4932.8   225(12)    3084
      4934.4   208(11)    3085
      4936.0   198(11)    3086
      4937.6   208(11)    3087
      4939.2   196(11)    3088
      4940.8   194(11)    3089
      4942.4   211(11)    3090
      4944.0   203(11)    3091
      4945.6   198(11)    3092
      4947.2   204(11)    3093
      4948.8   201(11)    3094
      4950.4   225(12)    3095
      4952.0   229(12)    3096
      4953.6   202(11)    3097
      4955.2   218(12)    3098
      4956.8   216(12)    3099
      4958.4   208(11)    3100
      4960.0   206(11)    3101
      4961.6   208(11)    3102
      4963.2   198(11)    3103
      4964.8   189(11)    3104
      4966.4   209(11)    3105
      4968.0   187(11)    3106
      4969.6   188(11)    3107
      4971.2   210(11)    3108
      4972.8   202(11)    3109
      4974.4   191(11)    3110
      4976.0   190(11)    3111
      4977.6   194(11)    3112
      4979.2   210(11)    3113
      4980.8   204(11)    3114
      4982.4   212(12)    3115
      4984.0   219(12)    3116
      4985.6   208(11)    3117
      4987.2   229(12)    3118
      4988.8   227(12)    3119
      4990.4   232(12)    3120
      4992.0   276(13)    3121
      4993.6   306(14)    3122
      4995.2   359(15)    3123
      4996.8   388(16)    3124
      4998.4   419(16)    3125
      5000.0   474(17)    3126
      5001.6   486(17)    3127
      5003.2   483(17)    3128
      5004.8   487(17)    3129
      5006.4   507(18)    3130
      5008.0   473(17)    3131
      5009.6   442(17)    3132
      5011.2   412(16)    3133
      5012.8   408(16)    3134
      5014.4   378(15)    3135
      5016.0   349(15)    3136
      5017.6   328(14)    3137
      5019.2   355(15)    3138
      5020.8   330(14)    3139
      5022.4   310(14)    3140
      5024.0   282(13)    3141
      5025.6   264(13)    3142
      5027.2   253(13)    3143
      5028.8   264(13)    3144
      5030.4   268(13)    3145
      5032.0   252(13)    3146
      5033.6   244(12)    3147
      5035.2   241(12)    3148
      5036.8   241(12)    3149
      5038.4   215(12)    3150
      5040.0   221(12)    3151
      5041.6   211(11)    3152
      5043.2   209(11)    3153
      5044.8   225(12)    3154
      5046.4   203(11)    3155
      5048.0   211(11)    3156
      5049.6   218(12)    3157
      5051.2   224(12)    3158
      5052.8   205(11)    3159
      5054.4   209(11)    3160
      5056.0   189(11)    3161
      5057.6   206(11)    3162
      5059.2   199(11)    3163
      5060.8   186(11)    3164
      5062.4   203(11)    3165
      5064.0   195(11)    3166
      5065.6   188(11)    3167
      5067.2   188(11)    3168
      5068.8   203(11)    3169
      5070.4   182(11)    3170
      5072.0   188(11)    3171
      5073.6   204(11)    3172
      5075.2   183(11)    3173
      5076.8   186(11)    3174
      5078.4   185(11)    3175
      5080.0   188(11)    3176
      5081.6   191(11)    3177
      5083.2   201(11)    3178
      5084.8   189(11)    3179
      5086.4   186(11)    3180
      5088.0   203(11)    3181
      5089.6   206(11)    3182
      5091.2   206(11)    3183
      5092.8   191(11)    3184
      5094.4   173(10)    3185
      5096.0   191(11)    3186
      5097.6   195(11)    3187
      5099.2   198(11)    3188
      5100.8   196(11)    3189
      5102.4   180(11)    3190
      5104.0   198(11)    3191
      5105.6   202(11)    3192
      5107.2   207(11)    3193
      5108.8   216(12)    3194
      5110.4   221(12)    3195
      5112.0   222(12)    3196
      5113.6   244(12)    3197
      5115.2   254(13)    3198
      5116.8   273(13)    3199
      5118.4   296(14)    3200
      5120.0   326(14)    3201
      5121.6   349(15)    3202
      5123.2   353(15)    3203
      5124.8   394(16)    3204
      5126.4   433(16)    3205
      5128.0   453(17)    3206
      5129.6   488(17)    3207
      5131.2   494(18)    3208
      5132.8   519(18)    3209
      5134.4   522(18)    3210
      5136.0   513(18)    3211
      5137.6   513(18)    3212
      5139.2   511(18)    3213
      5140.8   494(18)    3214
      5142.4   446(17)    3215
      5144.0   448(17)    3216
      5145.6   410(16)    3217
      5147.2   403(16)    3218
      5148.8   396(16)    3219
      5150.4   379(15)    3220
      5152.0   354(15)    3221
      5153.6   334(14)    3222
      5155.2   329(14)    3223
      5156.8   303(14)    3224
      5158.4   299(14)    3225
      5160.0   286(13)    3226
      5161.6   266(13)    3227
      5163.2   271(13)    3228
      5164.8   269(13)    3229
      5166.4   242(12)    3230
      5168.0   236(12)    3231
      5169.6   233(12)    3232
      5171.2   234(12)    3233
      5172.8   224(12)    3234
      5174.4   208(11)    3235
      5176.0   229(12)    3236
      5177.6   196(11)    3237
      5179.2   188(11)    3238
      5180.8   196(11)    3239
      5182.4   191(11)    3240
      5184.0   185(11)    3241
      5185.6   192(11)    3242
      5187.2   192(11)    3243
      5188.8   193(11)    3244
      5190.4   183(11)    3245
      5192.0   187(11)    3246
      5193.6   180(11)    3247
      5195.2   185(11)    3248
      5196.8   181(11)    3249
      5198.4   176(10)    3250
      5200.0   161(10)    3251
      5201.6   172(10)    3252
      5203.2   176(10)    3253
      5204.8   179(11)    3254
      5206.4   183(11)    3255
      5208.0   177(11)    3256
      5209.6   170(10)    3257
      5211.2   171(10)    3258
      5212.8   184(11)    3259
      5214.4   169(10)    3260
      5216.0   159(10)    3261
      5217.6   169(10)    3262
      5219.2   152(10)    3263
      5220.8   168(10)    3264
      5222.4   157(10)    3265
      5224.0   164(10)    3266
      5225.6   173(10)    3267
      5227.2   155(10)    3268
      5228.8   164(10)    3269
      5230.4   154(10)    3270
      5232.0   171(10)    3271
      5233.6   168(10)    3272
      5235.2   161(10)    3273
      5236.8   166(10)    3274
      5238.4   155(10)    3275
      5240.0   156(10)    3276
      5241.6   168(10)    3277
      5243.2   164(10)    3278
      5244.8   153(10)    3279
      5246.4   151(10)    3280
      5248.0   157(10)    3281
      5249.6   156(10)    3282
      5251.2   150(10)    3283
      5252.8   141(9)    3284
      5254.4   147(10)    3285
      5256.0   152(10)    3286
      5257.6   163(10)    3287
      5259.2   150(10)    3288
      5260.8   147(10)    3289
      5262.4   133(9)    3290
      5264.0   149(10)    3291
      5265.6   160(10)    3292
      5267.2   160(10)    3293
      5268.8   166(10)    3294
      5270.4   159(10)    3295
      5272.0   147(10)    3296
      5273.6   147(10)    3297
      5275.2   153(10)    3298
      5276.8   156(10)    3299
      5278.4   148(10)    3300
      5280.0   138(9)    3301
      5281.6   143(9)    3302
      5283.2   144(9)    3303
      5284.8   139(9)    3304
      5286.4   151(10)    3305
      5288.0   158(10)    3306
      5289.6   158(10)    3307
      5291.2   151(10)    3308
      5292.8   159(10)    3309
      5294.4   143(9)    3310
      5296.0   144(9)    3311
      5297.6   146(10)    3312
      5299.2   153(10)    3313
      5300.8   143(9)    3314
      5302.4   142(9)    3315
      5304.0   137(9)    3316
      5305.6   134(9)    3317
      5307.2   133(9)    3318
      5308.8   136(9)    3319
      5310.4   155(10)    3320
      5312.0   152(10)    3321
      5313.6   149(10)    3322
      5315.2   151(10)    3323
      5316.8   150(10)    3324
      5318.4   131(9)    3325
      5320.0   148(10)    3326
      5321.6   159(10)    3327
      5323.2   143(9)    3328
      5324.8   145(10)    3329
      5326.4   146(10)    3330
      5328.0   148(10)    3331
      5329.6   152(10)    3332
      5331.2   167(10)    3333
      5332.8   180(11)    3334
      5334.4   201(11)    3335
      5336.0   216(12)    3336
      5337.6   233(12)    3337
      5339.2   275(13)    3338
      5340.8   318(14)    3339
      5342.4   350(15)    3340
      5344.0   408(16)    3341
      5345.6   444(17)    3342
      5347.2   422(16)    3343
      5348.8   425(16)    3344
      5350.4   433(16)    3345
      5352.0   423(16)    3346
      5353.6   408(16)    3347
      5355.2   379(15)    3348
      5356.8   374(15)    3349
      5358.4   349(15)    3350
      5360.0   329(14)    3351
      5361.6   308(14)    3352
      5363.2   275(13)    3353
      5364.8   277(13)    3354
      5366.4   254(13)    3355
      5368.0   260(13)    3356
      5369.6   241(12)    3357
      5371.2   224(12)    3358
      5372.8   221(12)    3359
      5374.4   209(11)    3360
      5376.0   199(11)    3361
      5377.6   194(11)    3362
      5379.2   186(11)    3363
      5380.8   177(11)    3364
      5382.4   187(11)    3365
      5384.0   165(10)    3366
      5385.6   159(10)    3367
      5387.2   166(10)    3368
      5388.8   161(10)    3369
      5390.4   165(10)    3370
      5392.0   164(10)    3371
      5393.6   144(9)    3372
      5395.2   164(10)    3373
      5396.8   156(10)    3374
      5398.4   151(10)    3375
      5400.0   142(9)    3376
      5401.6   156(10)    3377
      5403.2   151(10)    3378
      5404.8   131(9)    3379
      5406.4   136(9)    3380
      5408.0   147(10)    3381
      5409.6   122(9)    3382
      5411.2   150(10)    3383
      5412.8   149(10)    3384
      5414.4   152(10)    3385
      5416.0   144(9)    3386
      5417.6   142(9)    3387
      5419.2   145(10)    3388
      5420.8   137(9)    3389
      5422.4   153(10)    3390
      5424.0   133(9)    3391
      5425.6   128(9)    3392
      5427.2   130(9)    3393
      5428.8   150(10)    3394
      5430.4   136(9)    3395
      5432.0   130(9)    3396
      5433.6   135(9)    3397
      5435.2   139(9)    3398
      5436.8   149(10)    3399
      5438.4   135(9)    3400
      5440.0   121(9)    3401
      5441.6   135(9)    3402
      5443.2   139(9)    3403
      5444.8   137(9)    3404
      5446.4   124(9)    3405
      5448.0   138(9)    3406
      5449.6   132(9)    3407
      5451.2   126(9)    3408
      5452.8   126(9)    3409
      5454.4   132(9)    3410
      5456.0   146(10)    3411
      5457.6   146(10)    3412
      5459.2   126(9)    3413
      5460.8   142(9)    3414
      5462.4   138(9)    3415
      5464.0   139(9)    3416
      5465.6   121(9)    3417
      5467.2   122(9)    3418
      5468.8   129(9)    3419
      5470.4   136(9)    3420
      5472.0   131(9)    3421
      5473.6   134(9)    3422
      5475.2   124(9)    3423
      5476.8   127(9)    3424
      5478.4   137(9)    3425
      5480.0   144(9)    3426
      5481.6   133(9)    3427
      5483.2   116(9)    3428
      5484.8   121(9)    3429
      5486.4   125(9)    3430
      5488.0   125(9)    3431
      5489.6   128(9)    3432
      5491.2   131(9)    3433
      5492.8   117(9)    3434
      5494.4   124(9)    3435
      5496.0   133(9)    3436
      5497.6   120(9)    3437
      5499.2   130(9)    3438
      5500.8   126(9)    3439
      5502.4   126(9)    3440
      5504.0   123(9)    3441
      5505.6   128(9)    3442
      5507.2   118(9)    3443
      5508.8   134(9)    3444
      5510.4   132(9)    3445
      5512.0   124(9)    3446
      5513.6   136(9)    3447
      5515.2   129(9)    3448
      5516.8   126(9)    3449
      5518.4   128(9)    3450
      5520.0   137(9)    3451
      5521.6   131(9)    3452
      5523.2   131(9)    3453
      5524.8   126(9)    3454
      5526.4   123(9)    3455
      5528.0   133(9)    3456
      5529.6   120(9)    3457
      5531.2   123(9)    3458
      5532.8   128(9)    3459
      5534.4   127(9)    3460
      5536.0   125(9)    3461
      5537.6   124(9)    3462
      5539.2   121(9)    3463
      5540.8   125(9)    3464
      5542.4   124(9)    3465
      5544.0   128(9)    3466
      5545.6   124(9)    3467
      5547.2   125(9)    3468
      5548.8   126(9)    3469
      5550.4   136(9)    3470
      5552.0   129(9)    3471
      5553.6   108(8)    3472
      5555.2   122(9)    3473
      5556.8   116(9)    3474
      5558.4   134(9)    3475
      5560.0   125(9)    3476
      5561.6   116(9)    3477
      5563.2   117(9)    3478
      5564.8   118(9)    3479
      5566.4   118(9)    3480
      5568.0   133(9)    3481
      5569.6   120(9)    3482
      5571.2   119(9)    3483
      5572.8   130(9)    3484
      5574.4   138(9)    3485
      5576.0   137(9)    3486
      5577.6   149(10)    3487
      5579.2   155(10)    3488
      5580.8   165(10)    3489
      5582.4   189(11)    3490
      5584.0   213(12)    3491
      5585.6   229(12)    3492
      5587.2   225(12)    3493
      5588.8   241(12)    3494
      5590.4   289(13)    3495
      5592.0   270(13)    3496
      5593.6   271(13)    3497
      5595.2   258(13)    3498
      5596.8   259(13)    3499
      5598.4   248(12)    3500
      5600.0   244(12)    3501
      5601.6   236(12)    3502
      5603.2   225(12)    3503
      5604.8   217(12)    3504
      5606.4   203(11)    3505
      5608.0   186(11)    3506
      5609.6   188(11)    3507
      5611.2   174(10)    3508
      5612.8   169(10)    3509
      5614.4   168(10)    3510
      5616.0   159(10)    3511
      5617.6   155(10)    3512
      5619.2   148(10)    3513
      5620.8   138(9)    3514
      5622.4   138(9)    3515
      5624.0   143(9)    3516
      5625.6   141(9)    3517
      5627.2   144(9)    3518
      5628.8   151(10)    3519
      5630.4   153(10)    3520
      5632.0   122(9)    3521
      5633.6   123(9)    3522
      5635.2   112(8)    3523
      5636.8   120(9)    3524
      5638.4   123(9)    3525
      5640.0   116(9)    3526
      5641.6   119(9)    3527
      5643.2   116(9)    3528
      5644.8   120(9)    3529
      5646.4   120(9)    3530
      5648.0   139(9)    3531
      5649.6   124(9)    3532
      5651.2   119(9)    3533
      5652.8   105(8)    3534
      5654.4   115(8)    3535
      5656.0   110(8)    3536
      5657.6   120(9)    3537
      5659.2   122(9)    3538
      5660.8   117(9)    3539
      5662.4   120(9)    3540
      5664.0   112(8)    3541
      5665.6   118(9)    3542
      5667.2   109(8)    3543
      5668.8   113(8)    3544
      5670.4   114(8)    3545
      5672.0   106(8)    3546
      5673.6   103(8)    3547
      5675.2   103(8)    3548
      5676.8   117(9)    3549
      5678.4   109(8)    3550
      5680.0   118(9)    3551
      5681.6   113(8)    3552
      5683.2   103(8)    3553
      5684.8   111(8)    3554
      5686.4   125(9)    3555
      5688.0   98(8)    3556
      5689.6   107(8)    3557
      5691.2   114(8)    3558
      5692.8   111(8)    3559
      5694.4   107(8)    3560
      5696.0   105(8)    3561
      5697.6   104(8)    3562
      5699.2   109(8)    3563
      5700.8   101(8)    3564
      5702.4   116(9)    3565
      5704.0   102(8)    3566
      5705.6   110(8)    3567
      5707.2   119(9)    3568
      5708.8   128(9)    3569
      5710.4   116(9)    3570
      5712.0   101(8)    3571
      5713.6   109(8)    3572
      5715.2   112(8)    3573
      5716.8   116(9)    3574
      5718.4   100(8)    3575
      5720.0   104(8)    3576
      5721.6   106(8)    3577
      5723.2   107(8)    3578
      5724.8   104(8)    3579
      5726.4   96(8)    3580
      5728.0   105(8)    3581
      5729.6   113(8)    3582
      5731.2   108(8)    3583
      5732.8   104(8)    3584
      5734.4   107(8)    3585
      5736.0   111(8)    3586
      5737.6   113(8)    3587
      5739.2   96(8)    3588
      5740.8   96(8)    3589
      5742.4   94(8)    3590
      5744.0   102(8)    3591
      5745.6   113(8)    3592
      5747.2   103(8)    3593
      5748.8   104(8)    3594
      5750.4   98(8)    3595
      5752.0   106(8)    3596
      5753.6   102(8)    3597
      5755.2   106(8)    3598
      5756.8   109(8)    3599
      5758.4   93(8)    3600
      5760.0   102(8)    3601
      5761.6   108(8)    3602
      5763.2   108(8)    3603
      5764.8   101(8)    3604
      5766.4   109(8)    3605
      5768.0   102(8)    3606
      5769.6   103(8)    3607
      5771.2   108(8)    3608
      5772.8   104(8)    3609
      5774.4   98(8)    3610
      5776.0   103(8)    3611
      5777.6   97(8)    3612
      5779.2   109(8)    3613
      5780.8   104(8)    3614
      5782.4   107(8)    3615
      5784.0   97(8)    3616
      5785.6   99(8)    3617
      5787.2   101(8)    3618
      5788.8   96(8)    3619
      5790.4   112(8)    3620
      5792.0   93(8)    3621
      5793.6   102(8)    3622
      5795.2   108(8)    3623
      5796.8   99(8)    3624
      5798.4   104(8)    3625
      5800.0   111(8)    3626
      5801.6   112(8)    3627
      5803.2   97(8)    3628
      5804.8   105(8)    3629
      5806.4   89(7)    3630
      5808.0   101(8)    3631
      5809.6   103(8)    3632
      5811.2   104(8)    3633
      5812.8   108(8)    3634
      5814.4   96(8)    3635
      5816.0   101(8)    3636
      5817.6   101(8)    3637
      5819.2   105(8)    3638
      5820.8   102(8)    3639
      5822.4   99(8)    3640
      5824.0   83(7)    3641
      5825.6   91(8)    3642
      5827.2   96(8)    3643
      5828.8   108(8)    3644
      5830.4   106(8)    3645
      5832.0   98(8)    3646
      5833.6   94(8)    3647
      5835.2   94(8)    3648
      5836.8   98(8)    3649
      5838.4   100(8)    3650
      5840.0   117(9)    3651
      5841.6   97(8)    3652
      5843.2   91(8)    3653
      5844.8   104(8)    3654
      5846.4   96(8)    3655
      5848.0   94(8)    3656
      5849.6   93(8)    3657
      5851.2   89(7)    3658
      5852.8   93(8)    3659
      5854.4   98(8)    3660
      5856.0   98(8)    3661
      5857.6   102(8)    3662
      5859.2   100(8)    3663
      5860.8   99(8)    3664
      5862.4   104(8)    3665
      5864.0   101(8)    3666
      5865.6   101(8)    3667
      5867.2   104(8)    3668
      5868.8   98(8)    3669
      5870.4   94(8)    3670
      5872.0   104(8)    3671
      5873.6   110(8)    3672
      5875.2   103(8)    3673
      5876.8   109(8)    3674
      5878.4   90(8)    3675
      5880.0   99(8)    3676
      5881.6   98(8)    3677
      5883.2   84(7)    3678
      5884.8   114(8)    3679
      5886.4   108(8)    3680
      5888.0   99(8)    3681
      5889.6   115(8)    3682
      5891.2   107(8)    3683
      5892.8   109(8)    3684
      5894.4   113(8)    3685
      5896.0   108(8)    3686
      5897.6   116(9)    3687
      5899.2   114(8)    3688
      5900.8   131(9)    3689
      5902.4   129(9)    3690
      5904.0   149(10)    3691
      5905.6   136(9)    3692
      5907.2   168(10)    3693
      5908.8   191(11)    3694
      5910.4   214(12)    3695
      5912.0   253(13)    3696
      5913.6   308(14)    3697
      5915.2   358(15)    3698
      5916.8   424(16)    3699
      5918.4   440(17)    3700
      5920.0   473(17)    3701
      5921.6   564(19)    3702
      5923.2   595(19)    3703
      5924.8   555(19)    3704
      5926.4   596(19)    3705
      5928.0   595(19)    3706
      5929.6   577(19)    3707
      5931.2   596(19)    3708
      5932.8   570(19)    3709
      5934.4   541(18)    3710
      5936.0   498(18)    3711
      5937.6   473(17)    3712
      5939.2   446(17)    3713
      5940.8   432(16)    3714
      5942.4   385(16)    3715
      5944.0   364(15)    3716
      5945.6   353(15)    3717
      5947.2   323(14)    3718
      5948.8   301(14)    3719
      5950.4   278(13)    3720
      5952.0   264(13)    3721
      5953.6   250(13)    3722
      5955.2   230(12)    3723
      5956.8   209(11)    3724
      5958.4   184(11)    3725
      5960.0   179(11)    3726
      5961.6   174(10)    3727
      5963.2   172(10)    3728
      5964.8   179(11)    3729
      5966.4   153(10)    3730
      5968.0   142(9)    3731
      5969.6   135(9)    3732
      5971.2   141(9)    3733
      5972.8   139(9)    3734
      5974.4   141(9)    3735
      5976.0   137(9)    3736
      5977.6   123(9)    3737
      5979.2   109(8)    3738
      5980.8   111(8)    3739
      5982.4   108(8)    3740
      5984.0   119(9)    3741
      5985.6   115(8)    3742
      5987.2   89(7)    3743
      5988.8   110(8)    3744
      5990.4   113(8)    3745
      5992.0   114(8)    3746
      5993.6   106(8)    3747
      5995.2   105(8)    3748
      5996.8   102(8)    3749
      5998.4   104(8)    3750
      6000.0   97(8)    3751
      6001.6   106(8)    3752
      6003.2   96(8)    3753
      6004.8   98(8)    3754
      6006.4   96(8)    3755
      6008.0   96(8)    3756
      6009.6   90(8)    3757
      6011.2   88(7)    3758
      6012.8   101(8)    3759
      6014.4   85(7)    3760
      6016.0   85(7)    3761
      6017.6   99(8)    3762
      6019.2   88(7)    3763
      6020.8   107(8)    3764
      6022.4   104(8)    3765
      6024.0   94(8)    3766
      6025.6   77(7)    3767
      6027.2   90(8)    3768
      6028.8   84(7)    3769
      6030.4   76(7)    3770
      6032.0   86(7)    3771
      6033.6   80(7)    3772
      6035.2   89(7)    3773
      6036.8   83(7)    3774
      6038.4   84(7)    3775
      6040.0   89(7)    3776
      6041.6   94(8)    3777
      6043.2   80(7)    3778
      6044.8   79(7)    3779
      6046.4   92(8)    3780
      6048.0   96(8)    3781
      6049.6   94(8)    3782
      6051.2   89(7)    3783
      6052.8   98(8)    3784
      6054.4   90(8)    3785
      6056.0   93(8)    3786
      6057.6   88(7)    3787
      6059.2   89(7)    3788
      6060.8   81(7)    3789
      6062.4   85(7)    3790
      6064.0   101(8)    3791
      6065.6   91(8)    3792
      6067.2   88(7)    3793
      6068.8   96(8)    3794
      6070.4   106(8)    3795
      6072.0   120(9)    3796
      6073.6   121(9)    3797
      6075.2   134(9)    3798
      6076.8   173(10)    3799
      6078.4   194(11)    3800
      6080.0   215(12)    3801
      6081.6   221(12)    3802
      6083.2   249(12)    3803
      6084.8   268(13)    3804
      6086.4   281(13)    3805
      6088.0   274(13)    3806
      6089.6   265(13)    3807
      6091.2   260(13)    3808
      6092.8   276(13)    3809
      6094.4   244(12)    3810
      6096.0   228(12)    3811
      6097.6   212(12)    3812
      6099.2   207(11)    3813
      6100.8   204(11)    3814
      6102.4   200(11)    3815
      6104.0   189(11)    3816
      6105.6   179(11)    3817
      6107.2   173(10)    3818
      6108.8   166(10)    3819
      6110.4   147(10)    3820
      6112.0   138(9)    3821
      6113.6   118(9)    3822
      6115.2   128(9)    3823
      6116.8   116(9)    3824
      6118.4   118(9)    3825
      6120.0   123(9)    3826
      6121.6   113(8)    3827
      6123.2   125(9)    3828
      6124.8   118(9)    3829
      6126.4   112(8)    3830
      6128.0   121(9)    3831
      6129.6   112(8)    3832
      6131.2   108(8)    3833
      6132.8   109(8)    3834
      6134.4   101(8)    3835
      6136.0   96(8)    3836
      6137.6   119(9)    3837
      6139.2   108(8)    3838
      6140.8   89(7)    3839
      6142.4   101(8)    3840
      6144.0   115(8)    3841
      6145.6   113(8)    3842
      6147.2   114(8)    3843
      6148.8   110(8)    3844
      6150.4   119(9)    3845
      6152.0   118(9)    3846
      6153.6   142(9)    3847
      6155.2   138(9)    3848
      6156.8   158(10)    3849
      6158.4   156(10)    3850
      6160.0   157(10)    3851
      6161.6   193(11)    3852
      6163.2   201(11)    3853
      6164.8   234(12)    3854
      6166.4   256(13)    3855
      6168.0   271(13)    3856
      6169.6   338(15)    3857
      6171.2   405(16)    3858
      6172.8   497(18)    3859
      6174.4   589(19)    3860
      6176.0   695(21)    3861
      6177.6   782(22)    3862
      6179.2   884(24)    3863
      6180.8   1017(25)    3864
      6182.4   1094(26)    3865
      6184.0   1213(28)    3866
      6185.6   1296(28)    3867
      6187.2   1383(29)    3868
      6188.8   1426(30)    3869
      6190.4   1481(30)    3870
      6192.0   1442(30)    3871
      6193.6   1397(30)    3872
      6195.2   1381(29)    3873
      6196.8   1353(29)    3874
      6198.4   1308(29)    3875
      6200.0   1235(28)    3876
      6201.6   1136(27)    3877
      6203.2   1061(26)    3878
      6204.8   983(25)    3879
      6206.4   908(24)    3880
      6208.0   844(23)    3881
      6209.6   828(23)    3882
      6211.2   752(22)    3883
      6212.8   714(21)    3884
      6214.4   627(20)    3885
      6216.0   550(19)    3886
      6217.6   516(18)    3887
      6219.2   507(18)    3888
      6220.8   450(17)    3889
      6222.4   426(16)    3890
      6224.0   395(16)    3891
      6225.6   346(15)    3892
      6227.2   336(14)    3893
      6228.8   298(14)    3894
      6230.4   282(13)    3895
      6232.0   278(13)    3896
      6233.6   242(12)    3897
      6235.2   246(12)    3898
      6236.8   219(12)    3899
      6238.4   198(11)    3900
      6240.0   193(11)    3901
      6241.6   195(11)    3902
      6243.2   181(11)    3903
      6244.8   177(11)    3904
      6246.4   147(10)    3905
      6248.0   151(10)    3906
      6249.6   161(10)    3907
      6251.2   149(10)    3908
      6252.8   134(9)    3909
      6254.4   128(9)    3910
      6256.0   117(9)    3911
      6257.6   119(9)    3912
      6259.2   122(9)    3913
      6260.8   122(9)    3914
      6262.4   116(9)    3915
      6264.0   115(8)    3916
      6265.6   110(8)    3917
      6267.2   108(8)    3918
      6268.8   103(8)    3919
      6270.4   96(8)    3920
      6272.0   93(8)    3921
      6273.6   88(7)    3922
      6275.2   106(8)    3923
      6276.8   92(8)    3924
      6278.4   91(8)    3925
      6280.0   94(8)    3926
      6281.6   86(7)    3927
      6283.2   93(8)    3928
      6284.8   92(8)    3929
      6286.4   98(8)    3930
      6288.0   90(8)    3931
      6289.6   87(7)    3932
      6291.2   86(7)    3933
      6292.8   84(7)    3934
      6294.4   82(7)    3935
      6296.0   85(7)    3936
      6297.6   79(7)    3937
      6299.2   78(7)    3938
      6300.8   72(7)    3939
      6302.4   72(7)    3940
      6304.0   83(7)    3941
      6305.6   90(8)    3942
      6307.2   83(7)    3943
      6308.8   86(7)    3944
      6310.4   75(7)    3945
      6312.0   79(7)    3946
      6313.6   82(7)    3947
      6315.2   85(7)    3948
      6316.8   84(7)    3949
      6318.4   72(7)    3950
      6320.0   81(7)    3951
      6321.6   84(7)    3952
      6323.2   81(7)    3953
      6324.8   76(7)    3954
      6326.4   85(7)    3955
      6328.0   72(7)    3956
      6329.6   75(7)    3957
      6331.2   78(7)    3958
      6332.8   70(7)    3959
      6334.4   81(7)    3960
      6336.0   84(7)    3961
      6337.6   84(7)    3962
      6339.2   83(7)    3963
      6340.8   73(7)    3964
      6342.4   69(7)    3965
      6344.0   78(7)    3966
      6345.6   74(7)    3967
      6347.2   72(7)    3968
      6348.8   84(7)    3969
      6350.4   76(7)    3970
      6352.0   64(6)    3971
      6353.6   76(7)    3972
      6355.2   81(7)    3973
      6356.8   79(7)    3974
      6358.4   74(7)    3975
      6360.0   65(6)    3976
      6361.6   69(7)    3977
      6363.2   63(6)    3978
      6364.8   69(7)    3979
      6366.4   67(6)    3980
      6368.0   67(6)    3981
      6369.6   68(7)    3982
      6371.2   71(7)    3983
      6372.8   81(7)    3984
      6374.4   76(7)    3985
      6376.0   69(7)    3986
      6377.6   66(6)    3987
      6379.2   71(7)    3988
      6380.8   77(7)    3989
      6382.4   73(7)    3990
      6384.0   71(7)    3991
      6385.6   73(7)    3992
      6387.2   76(7)    3993
      6388.8   72(7)    3994
      6390.4   66(6)    3995
      6392.0   69(7)    3996
      6393.6   63(6)    3997
      6395.2   64(6)    3998
      6396.8   47(5)    3999
      6398.4   56(6)    4000
      6400.0   76(7)    4001
      6401.6   78(7)    4002
      6403.2   60(6)    4003
      6404.8   61(6)    4004
      6406.4   66(6)    4005
      6408.0   63(6)    4006
      6409.6   74(7)    4007
      6411.2   66(6)    4008
      6412.8   62(6)    4009
      6414.4   63(6)    4010
      6416.0   61(6)    4011
      6417.6   68(6)    4012
      6419.2   59(6)    4013
      6420.8   61(6)    4014
      6422.4   62(6)    4015
      6424.0   62(6)    4016
      6425.6   69(7)    4017
      6427.2   66(6)    4018
      6428.8   86(7)    4019
      6430.4   76(7)    4020
      6432.0   62(6)    4021
      6433.6   66(6)    4022
      6435.2   79(7)    4023
      6436.8   89(7)    4024
      6438.4   92(8)    4025
      6440.0   99(8)    4026
      6441.6   119(9)    4027
      6443.2   147(10)    4028
      6444.8   179(11)    4029
      6446.4   226(12)    4030
      6448.0   214(12)    4031
      6449.6   270(13)    4032
      6451.2   289(13)    4033
      6452.8   300(14)    4034
      6454.4   312(14)    4035
      6456.0   338(15)    4036
      6457.6   354(15)    4037
      6459.2   348(15)    4038
      6460.8   346(15)    4039
      6462.4   319(14)    4040
      6464.0   293(14)    4041
      6465.6   288(13)    4042
      6467.2   251(13)    4043
      6468.8   252(13)    4044
      6470.4   215(12)    4045
      6472.0   221(12)    4046
      6473.6   211(11)    4047
      6475.2   188(11)    4048
      6476.8   174(10)    4049
      6478.4   160(10)    4050
      6480.0   161(10)    4051
      6481.6   139(9)    4052
      6483.2   134(9)    4053
      6484.8   133(9)    4054
      6486.4   124(9)    4055
      6488.0   113(8)    4056
      6489.6   101(8)    4057
      6491.2   103(8)    4058
      6492.8   97(8)    4059
      6494.4   86(7)    4060
      6496.0   85(7)    4061
      6497.6   86(7)    4062
      6499.2   85(7)    4063
      6500.8   81(7)    4064
      6502.4   82(7)    4065
      6504.0   74(7)    4066
      6505.6   80(7)    4067
      6507.2   79(7)    4068
      6508.8   73(7)    4069
      6510.4   67(6)    4070
      6512.0   73(7)    4071
      6513.6   76(7)    4072
      6515.2   80(7)    4073
      6516.8   70(7)    4074
      6518.4   66(6)    4075
      6520.0   61(6)    4076
      6521.6   69(7)    4077
      6523.2   74(7)    4078
      6524.8   69(7)    4079
      6526.4   62(6)    4080
      6528.0   56(6)    4081
      6529.6   64(6)    4082
      6531.2   68(7)    4083
      6532.8   56(6)    4084
      6534.4   56(6)    4085
      6536.0   68(7)    4086
      6537.6   69(7)    4087
      6539.2   63(6)    4088
      6540.8   63(6)    4089
      6542.4   58(6)    4090
      6544.0   57(6)    4091
      6545.6   55(6)    4092
      6547.2   51(6)    4093
      6548.8   67(6)    4094
      6550.4   62(6)    4095
      6552.0   63(6)    4096
      6553.6   69(7)    4097
      6555.2   60(6)    4098
      6556.8   56(6)    4099
      6558.4   54(6)    4100
      6560.0   62(6)    4101
      6561.6   60(6)    4102
      6563.2   54(6)    4103
      6564.8   52(6)    4104
      6566.4   59(6)    4105
      6568.0   53(6)    4106
      6569.6   53(6)    4107
      6571.2   56(6)    4108
      6572.8   57(6)    4109
      6574.4   61(6)    4110
      6576.0   52(6)    4111
      6577.6   50(6)    4112
      6579.2   59(6)    4113
      6580.8   59(6)    4114
      6582.4   52(6)    4115
      6584.0   62(6)    4116
      6585.6   56(6)    4117
      6587.2   56(6)    4118
      6588.8   48(5)    4119
      6590.4   48(5)    4120
      6592.0   56(6)    4121
      6593.6   54(6)    4122
      6595.2   47(5)    4123
      6596.8   50(6)    4124
      6598.4   54(6)    4125
      6600.0   54(6)    4126
      6601.6   63(6)    4127
      6603.2   50(6)    4128
      6604.8   49(6)    4129
      6606.4   54(6)    4130
      6608.0   63(6)    4131
      6609.6   59(6)    4132
      6611.2   54(6)    4133
      6612.8   53(6)    4134
      6614.4   65(6)    4135
      6616.0   51(6)    4136
      6617.6   50(6)    4137
      6619.2   47(5)    4138
      6620.8   53(6)    4139
      6622.4   45(5)    4140
      6624.0   50(6)    4141
      6625.6   48(5)    4142
      6627.2   53(6)    4143
      6628.8   54(6)    4144
      6630.4   53(6)    4145
      6632.0   56(6)    4146
      6633.6   46(5)    4147
      6635.2   61(6)    4148
      6636.8   59(6)    4149
      6638.4   56(6)    4150
      6640.0   51(6)    4151
      6641.6   50(6)    4152
      6643.2   53(6)    4153
      6644.8   54(6)    4154
      6646.4   57(6)    4155
      6648.0   54(6)    4156
      6649.6   48(5)    4157
      6651.2   45(5)    4158
      6652.8   59(6)    4159
      6654.4   58(6)    4160
      6656.0   53(6)    4161
      6657.6   46(5)    4162
      6659.2   54(6)    4163
      6660.8   56(6)    4164
      6662.4   56(6)    4165
      6664.0   46(5)    4166
      6665.6   46(5)    4167
      6667.2   56(6)    4168
      6668.8   58(6)    4169
      6670.4   48(5)    4170
      6672.0   51(6)    4171
      6673.6   56(6)    4172
      6675.2   55(6)    4173
      6676.8   39(5)    4174
      6678.4   58(6)    4175
      6680.0   57(6)    4176
      6681.6   61(6)    4177
      6683.2   45(5)    4178
      6684.8   49(6)    4179
      6686.4   58(6)    4180
      6688.0   55(6)    4181
      6689.6   48(5)    4182
      6691.2   49(6)    4183
      6692.8   44(5)    4184
      6694.4   51(6)    4185
      6696.0   43(5)    4186
      6697.6   43(5)    4187
      6699.2   50(6)    4188
      6700.8   51(6)    4189
      6702.4   46(5)    4190
      6704.0   43(5)    4191
      6705.6   53(6)    4192
      6707.2   58(6)    4193
      6708.8   46(5)    4194
      6710.4   47(5)    4195
      6712.0   53(6)    4196
      6713.6   49(6)    4197
      6715.2   48(5)    4198
      6716.8   44(5)    4199
      6718.4   48(5)    4200
      6720.0   60(6)    4201
      6721.6   51(6)    4202
      6723.2   46(5)    4203
      6724.8   45(5)    4204
      6726.4   47(5)    4205
      6728.0   46(5)    4206
      6729.6   48(5)    4207
      6731.2   46(5)    4208
      6732.8   56(6)    4209
      6734.4   50(6)    4210
      6736.0   55(6)    4211
      6737.6   45(5)    4212
      6739.2   55(6)    4213
      6740.8   58(6)    4214
      6742.4   51(6)    4215
      6744.0   51(6)    4216
      6745.6   63(6)    4217
      6747.2   52(6)    4218
      6748.8   53(6)    4219
      6750.4   46(5)    4220
      6752.0   48(5)    4221
      6753.6   44(5)    4222
      6755.2   51(6)    4223
      6756.8   51(6)    4224
      6758.4   49(6)    4225
      6760.0   54(6)    4226
      6761.6   51(6)    4227
      6763.2   53(6)    4228
      6764.8   44(5)    4229
      6766.4   50(6)    4230
      6768.0   47(5)    4231
      6769.6   43(5)    4232
      6771.2   44(5)    4233
      6772.8   44(5)    4234
      6774.4   51(6)    4235
      6776.0   53(6)    4236
      6777.6   55(6)    4237
      6779.2   48(5)    4238
      6780.8   44(5)    4239
      6782.4   48(5)    4240
      6784.0   46(5)    4241
      6785.6   49(6)    4242
      6787.2   56(6)    4243
      6788.8   52(6)    4244
      6790.4   47(5)    4245
      6792.0   47(5)    4246
      6793.6   43(5)    4247
      6795.2   43(5)    4248
      6796.8   51(6)    4249
      6798.4   50(6)    4250
      6800.0   49(6)    4251
      6801.6   46(5)    4252
      6803.2   40(5)    4253
      6804.8   46(5)    4254
      6806.4   44(5)    4255
      6808.0   53(6)    4256
      6809.6   48(5)    4257
      6811.2   47(5)    4258
      6812.8   47(5)    4259
      6814.4   40(5)    4260
      6816.0   39(5)    4261
      6817.6   48(5)    4262
      6819.2   33(5)    4263
      6820.8   41(5)    4264
      6822.4   47(5)    4265
      6824.0   47(5)    4266
      6825.6   46(5)    4267
      6827.2   44(5)    4268
      6828.8   51(6)    4269
      6830.4   39(5)    4270
      6832.0   43(5)    4271
      6833.6   40(5)    4272
      6835.2   56(6)    4273
      6836.8   47(5)    4274
      6838.4   45(5)    4275
      6840.0   45(5)    4276
      6841.6   39(5)    4277
      6843.2   43(5)    4278
      6844.8   45(5)    4279
      6846.4   41(5)    4280
      6848.0   48(5)    4281
      6849.6   45(5)    4282
      6851.2   41(5)    4283
      6852.8   47(5)    4284
      6854.4   43(5)    4285
      6856.0   43(5)    4286
      6857.6   38(5)    4287
      6859.2   39(5)    4288
      6860.8   36(5)    4289
      6862.4   39(5)    4290
      6864.0   42(5)    4291
      6865.6   49(6)    4292
      6867.2   43(5)    4293
      6868.8   46(5)    4294
      6870.4   45(5)    4295
      6872.0   46(5)    4296
      6873.6   42(5)    4297
      6875.2   44(5)    4298
      6876.8   49(6)    4299
      6878.4   46(5)    4300
      6880.0   46(5)    4301
      6881.6   35(5)    4302
      6883.2   39(5)    4303
      6884.8   46(5)    4304
      6886.4   41(5)    4305
      6888.0   44(5)    4306
      6889.6   47(5)    4307
      6891.2   49(6)    4308
      6892.8   39(5)    4309
      6894.4   36(5)    4310
      6896.0   45(5)    4311
      6897.6   43(5)    4312
      6899.2   46(5)    4313
      6900.8   46(5)    4314
      6902.4   36(5)    4315
      6904.0   34(5)    4316
      6905.6   38(5)    4317
      6907.2   40(5)    4318
      6908.8   44(5)    4319
      6910.4   59(6)    4320
      6912.0   44(5)    4321
      6913.6   34(5)    4322
      6915.2   32(4)    4323
      6916.8   33(5)    4324
      6918.4   39(5)    4325
      6920.0   43(5)    4326
      6921.6   51(6)    4327
      6923.2   41(5)    4328
      6924.8   42(5)    4329
      6926.4   39(5)    4330
      6928.0   37(5)    4331
      6929.6   40(5)    4332
      6931.2   36(5)    4333
      6932.8   34(5)    4334
      6934.4   46(5)    4335
      6936.0   43(5)    4336
      6937.6   43(5)    4337
      6939.2   41(5)    4338
      6940.8   39(5)    4339
      6942.4   44(5)    4340
      6944.0   31(4)    4341
      6945.6   44(5)    4342
      6947.2   40(5)    4343
      6948.8   35(5)    4344
      6950.4   42(5)    4345
      6952.0   46(5)    4346
      6953.6   39(5)    4347
      6955.2   34(5)    4348
      6956.8   33(5)    4349
      6958.4   38(5)    4350
      6960.0   44(5)    4351
      6961.6   40(5)    4352
      6963.2   42(5)    4353
      6964.8   43(5)    4354
      6966.4   46(5)    4355
      6968.0   43(5)    4356
      6969.6   38(5)    4357
      6971.2   48(5)    4358
      6972.8   36(5)    4359
      6974.4   42(5)    4360
      6976.0   41(5)    4361
      6977.6   34(5)    4362
      6979.2   43(5)    4363
      6980.8   41(5)    4364
      6982.4   39(5)    4365
      6984.0   35(5)    4366
      6985.6   36(5)    4367
      6987.2   38(5)    4368
      6988.8   38(5)    4369
      6990.4   41(5)    4370
      6992.0   39(5)    4371
      6993.6   36(5)    4372
      6995.2   42(5)    4373
      6996.8   38(5)    4374
      6998.4   42(5)    4375
      7000.0   42(5)    4376
      7001.6   37(5)    4377
      7003.2   33(5)    4378
      7004.8   41(5)    4379
      7006.4   44(5)    4380
      7008.0   31(4)    4381
      7009.6   36(5)    4382
      7011.2   46(5)    4383
      7012.8   44(5)    4384
      7014.4   39(5)    4385
      7016.0   33(5)    4386
      7017.6   44(5)    4387
      7019.2   40(5)    4388
      7020.8   49(6)    4389
      7022.4   33(5)    4390
      7024.0   35(5)    4391
      7025.6   41(5)    4392
      7027.2   46(5)    4393
      7028.8   41(5)    4394
      7030.4   35(5)    4395
      7032.0   28(4)    4396
      7033.6   34(5)    4397
      7035.2   36(5)    4398
      7036.8   28(4)    4399
      7038.4   35(5)    4400
      7040.0   38(5)    4401
      7041.6   39(5)    4402
      7043.2   39(5)    4403
      7044.8   35(5)    4404
      7046.4   44(5)    4405
      7048.0   40(5)    4406
      7049.6   41(5)    4407
      7051.2   29(4)    4408
      7052.8   42(5)    4409
      7054.4   43(5)    4410
      7056.0   38(5)    4411
      7057.6   38(5)    4412
      7059.2   41(5)    4413
      7060.8   38(5)    4414
      7062.4   35(5)    4415
      7064.0   43(5)    4416
      7065.6   34(5)    4417
      7067.2   37(5)    4418
      7068.8   41(5)    4419
      7070.4   51(6)    4420
      7072.0   36(5)    4421
      7073.6   33(5)    4422
      7075.2   41(5)    4423
      7076.8   44(5)    4424
      7078.4   33(5)    4425
      7080.0   38(5)    4426
      7081.6   43(5)    4427
      7083.2   43(5)    4428
      7084.8   40(5)    4429
      7086.4   33(5)    4430
      7088.0   37(5)    4431
      7089.6   46(5)    4432
      7091.2   43(5)    4433
      7092.8   36(5)    4434
      7094.4   32(4)    4435
      7096.0   38(5)    4436
      7097.6   33(5)    4437
      7099.2   38(5)    4438
      7100.8   35(5)    4439
      7102.4   32(4)    4440
      7104.0   41(5)    4441
      7105.6   39(5)    4442
      7107.2   38(5)    4443
      7108.8   44(5)    4444
      7110.4   40(5)    4445
      7112.0   34(5)    4446
      7113.6   35(5)    4447
      7115.2   35(5)    4448
      7116.8   37(5)    4449
      7118.4   44(5)    4450
      7120.0   44(5)    4451
      7121.6   39(5)    4452
      7123.2   41(5)    4453
      7124.8   44(5)    4454
      7126.4   39(5)    4455
      7128.0   41(5)    4456
      7129.6   41(5)    4457
      7131.2   41(5)    4458
      7132.8   34(5)    4459
      7134.4   34(5)    4460
      7136.0   37(5)    4461
      7137.6   29(4)    4462
      7139.2   33(5)    4463
      7140.8   38(5)    4464
      7142.4   44(5)    4465
      7144.0   39(5)    4466
      7145.6   43(5)    4467
      7147.2   41(5)    4468
      7148.8   39(5)    4469
      7150.4   40(5)    4470
      7152.0   43(5)    4471
      7153.6   44(5)    4472
      7155.2   38(5)    4473
      7156.8   37(5)    4474
      7158.4   38(5)    4475
      7160.0   38(5)    4476
      7161.6   33(5)    4477
      7163.2   38(5)    4478
      7164.8   42(5)    4479
      7166.4   45(5)    4480
      7168.0   38(5)    4481
      7169.6   39(5)    4482
      7171.2   39(5)    4483
      7172.8   33(5)    4484
      7174.4   36(5)    4485
      7176.0   46(5)    4486
      7177.6   41(5)    4487
      7179.2   39(5)    4488
      7180.8   49(6)    4489
      7182.4   39(5)    4490
      7184.0   36(5)    4491
      7185.6   40(5)    4492
      7187.2   40(5)    4493
      7188.8   40(5)    4494
      7190.4   39(5)    4495
      7192.0   48(5)    4496
      7193.6   46(5)    4497
      7195.2   51(6)    4498
      7196.8   41(5)    4499
      7198.4   48(5)    4500
      7200.0   45(5)    4501
      7201.6   48(5)    4502
      7203.2   44(5)    4503
      7204.8   39(5)    4504
      7206.4   46(5)    4505
      7208.0   44(5)    4506
      7209.6   58(6)    4507
      7211.2   53(6)    4508
      7212.8   53(6)    4509
      7214.4   61(6)    4510
      7216.0   49(6)    4511
      7217.6   56(6)    4512
      7219.2   61(6)    4513
      7220.8   61(6)    4514
      7222.4   75(7)    4515
      7224.0   80(7)    4516
      7225.6   74(7)    4517
      7227.2   89(7)    4518
      7228.8   106(8)    4519
      7230.4   131(9)    4520
      7232.0   125(9)    4521
      7233.6   155(10)    4522
      7235.2   188(11)    4523
      7236.8   218(12)    4524
      7238.4   265(13)    4525
      7240.0   276(13)    4526
      7241.6   374(15)    4527
      7243.2   407(16)    4528
      7244.8   494(18)    4529
      7246.4   556(19)    4530
      7248.0   584(19)    4531
      7249.6   623(20)    4532
      7251.2   693(21)    4533
      7252.8   743(22)    4534
      7254.4   729(21)    4535
      7256.0   789(22)    4536
      7257.6   779(22)    4537
      7259.2   759(22)    4538
      7260.8   752(22)    4539
      7262.4   721(21)    4540
      7264.0   708(21)    4541
      7265.6   646(20)    4542
      7267.2   631(20)    4543
      7268.8   567(19)    4544
      7270.4   553(19)    4545
      7272.0   541(18)    4546
      7273.6   474(17)    4547
      7275.2   455(17)    4548
      7276.8   392(16)    4549
      7278.4   374(15)    4550
      7280.0   335(14)    4551
      7281.6   319(14)    4552
      7283.2   284(13)    4553
      7284.8   264(13)    4554
      7286.4   259(13)    4555
      7288.0   234(12)    4556
      7289.6   209(11)    4557
      7291.2   196(11)    4558
      7292.8   196(11)    4559
      7294.4   187(11)    4560
      7296.0   163(10)    4561
      7297.6   141(9)    4562
      7299.2   136(9)    4563
      7300.8   119(9)    4564
      7302.4   121(9)    4565
      7304.0   105(8)    4566
      7305.6   109(8)    4567
      7307.2   107(8)    4568
      7308.8   94(8)    4569
      7310.4   82(7)    4570
      7312.0   81(7)    4571
      7313.6   78(7)    4572
      7315.2   78(7)    4573
      7316.8   68(7)    4574
      7318.4   64(6)    4575
      7320.0   71(7)    4576
      7321.6   68(7)    4577
      7323.2   61(6)    4578
      7324.8   51(6)    4579
      7326.4   46(5)    4580
      7328.0   51(6)    4581
      7329.6   59(6)    4582
      7331.2   58(6)    4583
      7332.8   56(6)    4584
      7334.4   53(6)    4585
      7336.0   53(6)    4586
      7337.6   49(6)    4587
      7339.2   42(5)    4588
      7340.8   44(5)    4589
      7342.4   43(5)    4590
      7344.0   46(5)    4591
      7345.6   48(5)    4592
      7347.2   38(5)    4593
      7348.8   50(6)    4594
      7350.4   41(5)    4595
      7352.0   39(5)    4596
      7353.6   46(5)    4597
      7355.2   34(5)    4598
      7356.8   36(5)    4599
      7358.4   34(5)    4600
      7360.0   31(4)    4601
      7361.6   35(5)    4602
      7363.2   41(5)    4603
      7364.8   33(5)    4604
      7366.4   33(5)    4605
      7368.0   28(4)    4606
      7369.6   34(5)    4607
      7371.2   46(5)    4608
      7372.8   46(5)    4609
      7374.4   36(5)    4610
      7376.0   44(5)    4611
      7377.6   35(5)    4612
      7379.2   32(4)    4613
      7380.8   35(5)    4614
      7382.4   31(4)    4615
      7384.0   38(5)    4616
      7385.6   30(4)    4617
      7387.2   32(4)    4618
      7388.8   36(5)    4619
      7390.4   36(5)    4620
      7392.0   41(5)    4621
      7393.6   41(5)    4622
      7395.2   34(5)    4623
      7396.8   36(5)    4624
      7398.4   38(5)    4625
      7400.0   26(4)    4626
      7401.6   32(4)    4627
      7403.2   34(5)    4628
      7404.8   29(4)    4629
      7406.4   25(4)    4630
      7408.0   29(4)    4631
      7409.6   33(5)    4632
      7411.2   30(4)    4633
      7412.8   24(4)    4634
      7414.4   31(4)    4635
      7416.0   33(5)    4636
      7417.6   33(5)    4637
      7419.2   41(5)    4638
      7420.8   34(5)    4639
      7422.4   32(4)    4640
      7424.0   40(5)    4641
      7425.6   28(4)    4642
      7427.2   31(4)    4643
      7428.8   27(4)    4644
      7430.4   29(4)    4645
      7432.0   31(4)    4646
      7433.6   30(4)    4647
      7435.2   34(5)    4648
      7436.8   33(5)    4649
      7438.4   27(4)    4650
      7440.0   28(4)    4651
      7441.6   32(4)    4652
      7443.2   38(5)    4653
      7444.8   34(5)    4654
      7446.4   29(4)    4655
      7448.0   24(4)    4656
      7449.6   27(4)    4657
      7451.2   28(4)    4658
      7452.8   27(4)    4659
      7454.4   25(4)    4660
      7456.0   25(4)    4661
      7457.6   33(5)    4662
      7459.2   25(4)    4663
      7460.8   22(4)    4664
      7462.4   24(4)    4665
      7464.0   27(4)    4666
      7465.6   31(4)    4667
      7467.2   36(5)    4668
      7468.8   29(4)    4669
      7470.4   30(4)    4670
      7472.0   28(4)    4671
      7473.6   24(4)    4672
      7475.2   25(4)    4673
      7476.8   30(4)    4674
      7478.4   31(4)    4675
      7480.0   29(4)    4676
      7481.6   31(4)    4677
      7483.2   29(4)    4678
      7484.8   30(4)    4679
      7486.4   28(4)    4680
      7488.0   34(5)    4681
      7489.6   28(4)    4682
      7491.2   29(4)    4683
      7492.8   31(4)    4684
      7494.4   26(4)    4685
      7496.0   33(5)    4686
      7497.6   29(4)    4687
      7499.2   28(4)    4688
      7500.8   31(4)    4689
      7502.4   28(4)    4690
      7504.0   35(5)    4691
      7505.6   37(5)    4692
      7507.2   34(5)    4693
      7508.8   33(5)    4694
      7510.4   34(5)    4695
      7512.0   39(5)    4696
      7513.6   34(5)    4697
      7515.2   28(4)    4698
      7516.8   24(4)    4699
      7518.4   29(4)    4700
      7520.0   27(4)    4701
      7521.6   28(4)    4702
      7523.2   30(4)    4703
      7524.8   24(4)    4704
      7526.4   25(4)    4705
      7528.0   29(4)    4706
      7529.6   28(4)    4707
      7531.2   31(4)    4708
      7532.8   29(4)    4709
      7534.4   26(4)    4710
      7536.0   26(4)    4711
      7537.6   29(4)    4712
      7539.2   27(4)    4713
      7540.8   26(4)    4714
      7542.4   30(4)    4715
      7544.0   25(4)    4716
      7545.6   29(4)    4717
      7547.2   31(4)    4718
      7548.8   31(4)    4719
      7550.4   34(5)    4720
      7552.0   31(4)    4721
      7553.6   32(4)    4722
      7555.2   33(5)    4723
      7556.8   29(4)    4724
      7558.4   29(4)    4725
      7560.0   24(4)    4726
      7561.6   37(5)    4727
      7563.2   34(5)    4728
      7564.8   24(4)    4729
      7566.4   25(4)    4730
      7568.0   27(4)    4731
      7569.6   24(4)    4732
      7571.2   21(4)    4733
      7572.8   26(4)    4734
      7574.4   26(4)    4735
      7576.0   30(4)    4736
      7577.6   31(4)    4737
      7579.2   33(5)    4738
      7580.8   27(4)    4739
      7582.4   26(4)    4740
      7584.0   23(4)    4741
      7585.6   23(4)    4742
      7587.2   23(4)    4743
      7588.8   23(4)    4744
      7590.4   23(4)    4745
      7592.0   24(4)    4746
      7593.6   31(4)    4747
      7595.2   24(4)    4748
      7596.8   28(4)    4749
      7598.4   20(4)    4750
      7600.0   28(4)    4751
      7601.6   28(4)    4752
      7603.2   26(4)    4753
      7604.8   29(4)    4754
      7606.4   26(4)    4755
      7608.0   31(4)    4756
      7609.6   35(5)    4757
      7611.2   29(4)    4758
      7612.8   28(4)    4759
      7614.4   25(4)    4760
      7616.0   31(4)    4761
      7617.6   27(4)    4762
      7619.2   27(4)    4763
      7620.8   25(4)    4764
      7622.4   24(4)    4765
      7624.0   28(4)    4766
      7625.6   24(4)    4767
      7627.2   22(4)    4768
      7628.8  19.4(35)    4769
      7630.4   31(4)    4770
      7632.0   26(4)    4771
      7633.6   23(4)    4772
      7635.2   26(4)    4773
      7636.8   24(4)    4774
      7638.4   21(4)    4775
      7640.0   21(4)    4776
      7641.6   27(4)    4777
      7643.2   25(4)    4778
      7644.8   25(4)    4779
      7646.4   26(4)    4780
      7648.0   22(4)    4781
      7649.6   22(4)    4782
      7651.2   25(4)    4783
      7652.8  19.4(35)    4784
      7654.4   22(4)    4785
      7656.0   23(4)    4786
      7657.6   23(4)    4787
      7659.2   23(4)    4788
      7660.8   26(4)    4789
      7662.4   21(4)    4790
      7664.0   20(4)    4791
      7665.6   21(4)    4792
      7667.2  19.4(35)    4793
      7668.8  15.0(31)    4794
      7670.4  18.1(34)    4795
      7672.0   26(4)    4796
      7673.6   29(4)    4797
      7675.2   24(4)    4798
      7676.8   26(4)    4799
      7678.4   22(4)    4800
      7680.0   35(5)    4801
      7681.6   21(4)    4802
      7683.2  19.4(35)    4803
      7684.8   26(4)    4804
      7686.4   29(4)    4805
      7688.0   27(4)    4806
      7689.6   31(4)    4807
      7691.2   31(4)    4808
      7692.8   29(4)    4809
      7694.4   25(4)    4810
      7696.0   26(4)    4811
      7697.6   26(4)    4812
      7699.2   29(4)    4813
      7700.8   31(4)    4814
      7702.4   29(4)    4815
      7704.0   25(4)    4816
      7705.6   31(4)    4817
      7707.2   28(4)    4818
      7708.8   31(4)    4819
      7710.4   26(4)    4820
      7712.0   29(4)    4821
      7713.6   24(4)    4822
      7715.2   29(4)    4823
      7716.8   29(4)    4824
      7718.4   27(4)    4825
      7720.0   21(4)    4826
      7721.6   24(4)    4827
      7723.2   23(4)    4828
      7724.8   23(4)    4829
      7726.4   24(4)    4830
      7728.0   23(4)    4831
      7729.6   29(4)    4832
      7731.2   28(4)    4833
      7732.8   33(5)    4834
      7734.4   28(4)    4835
      7736.0   23(4)    4836
      7737.6   26(4)    4837
      7739.2   26(4)    4838
      7740.8   29(4)    4839
      7742.4   28(4)    4840
      7744.0   24(4)    4841
      7745.6   21(4)    4842
      7747.2   23(4)    4843
      7748.8   22(4)    4844
      7750.4   26(4)    4845
      7752.0   24(4)    4846
      7753.6   24(4)    4847
      7755.2   20(4)    4848
      7756.8   20(4)    4849
      7758.4   23(4)    4850
      7760.0   23(4)    4851
      7761.6   23(4)    4852
      7763.2   21(4)    4853
      7764.8  15.6(31)    4854
      7766.4   28(4)    4855
      7768.0   26(4)    4856
      7769.6   24(4)    4857
      7771.2   24(4)    4858
      7772.8   28(4)    4859
      7774.4   24(4)    4860
      7776.0   27(4)    4861
      7777.6   25(4)    4862
      7779.2  19.4(35)    4863
      7780.8   25(4)    4864
      7782.4  17.5(33)    4865
      7784.0   23(4)    4866
      7785.6   23(4)    4867
      7787.2   20(4)    4868
      7788.8   23(4)    4869
      7790.4  19.4(35)    4870
      7792.0   26(4)    4871
      7793.6   22(4)    4872
      7795.2   26(4)    4873
      7796.8   26(4)    4874
      7798.4   27(4)    4875
      7800.0   24(4)    4876
      7801.6   28(4)    4877
      7803.2   28(4)    4878
      7804.8  19.4(35)    4879
      7806.4   20(4)    4880
      7808.0   29(4)    4881
      7809.6   23(4)    4882
      7811.2   21(4)    4883
      7812.8  19.4(35)    4884
      7814.4   21(4)    4885
      7816.0  17.5(33)    4886
      7817.6   20(4)    4887
      7819.2   21(4)    4888
      7820.8   26(4)    4889
      7822.4  19.4(35)    4890
      7824.0  19.4(35)    4891
      7825.6   20(4)    4892
      7827.2   23(4)    4893
      7828.8   30(4)    4894
      7830.4   29(4)    4895
      7832.0   29(4)    4896
      7833.6   24(4)    4897
      7835.2   26(4)    4898
      7836.8   22(4)    4899
      7838.4   26(4)    4900
      7840.0   28(4)    4901
      7841.6   22(4)    4902
      7843.2   24(4)    4903
      7844.8   21(4)    4904
      7846.4  18.8(34)    4905
      7848.0   23(4)    4906
      7849.6   21(4)    4907
      7851.2   21(4)    4908
      7852.8   22(4)    4909
      7854.4   24(4)    4910
      7856.0   23(4)    4911
      7857.6  18.8(34)    4912
      7859.2   22(4)    4913
      7860.8   25(4)    4914
      7862.4   25(4)    4915
      7864.0   23(4)    4916
      7865.6   25(4)    4917
      7867.2   25(4)    4918
      7868.8   29(4)    4919
      7870.4   29(4)    4920
      7872.0   26(4)    4921
      7873.6   20(4)    4922
      7875.2   24(4)    4923
      7876.8   24(4)    4924
      7878.4   26(4)    4925
      7880.0   25(4)    4926
      7881.6   24(4)    4927
      7883.2   22(4)    4928
      7884.8   23(4)    4929
      7886.4   36(5)    4930
      7888.0   38(5)    4931
      7889.6   39(5)    4932
      7891.2   48(5)    4933
      7892.8   40(5)    4934
      7894.4   55(6)    4935
      7896.0   56(6)    4936
      7897.6   70(7)    4937
      7899.2   67(6)    4938
      7900.8   72(7)    4939
      7902.4   76(7)    4940
      7904.0   88(7)    4941
      7905.6   81(7)    4942
      7907.2   77(7)    4943
      7908.8   77(7)    4944
      7910.4   81(7)    4945
      7912.0   78(7)    4946
      7913.6   66(6)    4947
      7915.2   83(7)    4948
      7916.8   70(7)    4949
      7918.4   59(6)    4950
      7920.0   59(6)    4951
      7921.6   54(6)    4952
      7923.2   51(6)    4953
      7924.8   41(5)    4954
      7926.4   51(6)    4955
      7928.0   46(5)    4956
      7929.6   40(5)    4957
      7931.2   46(5)    4958
      7932.8   43(5)    4959
      7934.4   36(5)    4960
      7936.0   33(5)    4961
      7937.6   29(4)    4962
      7939.2   34(5)    4963
      7940.8   29(4)    4964
      7942.4   29(4)    4965
      7944.0   29(4)    4966
      7945.6   28(4)    4967
      7947.2   27(4)    4968
      7948.8   26(4)    4969
      7950.4   22(4)    4970
      7952.0   26(4)    4971
      7953.6   24(4)    4972
      7955.2  19.4(35)    4973
      7956.8   24(4)    4974
      7958.4   24(4)    4975
      7960.0  16.9(32)    4976
      7961.6  15.0(31)    4977
      7963.2   20(4)    4978
      7964.8   21(4)    4979
      7966.4   21(4)    4980
      7968.0  15.6(31)    4981
      7969.6  19.4(35)    4982
      7971.2   26(4)    4983
      7972.8   21(4)    4984
      7974.4   23(4)    4985
      7976.0   31(4)    4986
      7977.6   27(4)    4987
      7979.2   22(4)    4988
      7980.8  18.1(34)    4989
      7982.4   21(4)    4990
      7984.0   23(4)    4991
      7985.6   20(4)    4992
      7987.2   27(4)    4993
      7988.8  18.8(34)    4994
      7990.4  18.8(34)    4995
      7992.0  15.6(31)    4996
      7993.6   23(4)    4997
      7995.2  16.2(32)    4998
      7996.8  18.1(34)    4999
      7998.4   22(4)    5000
      8000.0  16.2(32)    5001
      8001.6  15.6(31)    5002
      8003.2   22(4)    5003
      8004.8   28(4)    5004
      8006.4   28(4)    5005
      8008.0   22(4)    5006
      8009.6  16.2(32)    5007
      8011.2  16.9(32)    5008
      8012.8   21(4)    5009
      8014.4  19.4(35)    5010
      8016.0  18.8(34)    5011
      8017.6   21(4)    5012
      8019.2  18.1(34)    5013
      8020.8  18.1(34)    5014
      8022.4  15.0(31)    5015
      8024.0  15.0(31)    5016
      8025.6  16.2(32)    5017
      8027.2  18.8(34)    5018
      8028.8  19.4(35)    5019
      8030.4   21(4)    5020
      8032.0  16.2(32)    5021
      8033.6  18.8(34)    5022
      8035.2  16.9(32)    5023
      8036.8   21(4)    5024
      8038.4   24(4)    5025
      8040.0  19.4(35)    5026
      8041.6  17.5(33)    5027
      8043.2  18.8(34)    5028
      8044.8   23(4)    5029
      8046.4  17.5(33)    5030
      8048.0   23(4)    5031
      8049.6   28(4)    5032
      8051.2   20(4)    5033
      8052.8   23(4)    5034
      8054.4  15.0(31)    5035
      8056.0  16.9(32)    5036
      8057.6   21(4)    5037
      8059.2  18.8(34)    5038
      8060.8  18.8(34)    5039
      8062.4  16.9(32)    5040
      8064.0   24(4)    5041
      8065.6   22(4)    5042
      8067.2   21(4)    5043
      8068.8  15.0(31)    5044
      8070.4  15.6(31)    5045
      8072.0  19.4(35)    5046
      8073.6  16.9(32)    5047
      8075.2   24(4)    5048
      8076.8  16.9(32)    5049
      8078.4  15.6(31)    5050
      8080.0  15.6(31)    5051
      8081.6  16.9(32)    5052
      8083.2  18.8(34)    5053
      8084.8  14.4(30)    5054
      8086.4  18.1(34)    5055
      8088.0   21(4)    5056
      8089.6   22(4)    5057
      8091.2  18.8(34)    5058
      8092.8  18.1(34)    5059
      8094.4   21(4)    5060
      8096.0   20(4)    5061
      8097.6   20(4)    5062
      8099.2  16.9(32)    5063
      8100.8  18.8(34)    5064
      8102.4  14.4(30)    5065
      8104.0  17.5(33)    5066
      8105.6   24(4)    5067
      8107.2  19.4(35)    5068
      8108.8  17.5(33)    5069
      8110.4  18.8(34)    5070
      8112.0   21(4)    5071
      8113.6   21(4)    5072
      8115.2  19.4(35)    5073
      8116.8  17.5(33)    5074
      8118.4  19.4(35)    5075
      8120.0  16.9(32)    5076
      8121.6  17.5(33)    5077
      8123.2  16.2(32)    5078
      8124.8  16.9(32)    5079
      8126.4  18.8(34)    5080
      8128.0  11.9(27)    5081
      8129.6  14.4(30)    5082
      8131.2  15.0(31)    5083
      8132.8  18.1(34)    5084
      8134.4  16.9(32)    5085
      8136.0   20(4)    5086
      8137.6  14.4(30)    5087
      8139.2  15.6(31)    5088
      8140.8  18.8(34)    5089
      8142.4   27(4)    5090
      8144.0  18.8(34)    5091
      8145.6  13.1(29)    5092
      8147.2  17.5(33)    5093
      8148.8   20(4)    5094
      8150.4  19.4(35)    5095
      8152.0   20(4)    5096
      8153.6   26(4)    5097
      8155.2   22(4)    5098
      8156.8   23(4)    5099
      8158.4   21(4)    5100
      8160.0  16.9(32)    5101
      8161.6  15.0(31)    5102
      8163.2  19.4(35)    5103
      8164.8  16.9(32)    5104
      8166.4   20(4)    5105
      8168.0  11.9(27)    5106
      8169.6  17.5(33)    5107
      8171.2  15.0(31)    5108
      8172.8  16.2(32)    5109
      8174.4  18.8(34)    5110
      8176.0   20(4)    5111
      8177.6  16.9(32)    5112
      8179.2  15.0(31)    5113
      8180.8  16.9(32)    5114
      8182.4   21(4)    5115
      8184.0  13.8(29)    5116
      8185.6  15.6(31)    5117
      8187.2  13.1(29)    5118
      8188.8  13.8(29)    5119
      8190.4  11.2(27)    5120
_pd_meas_number_of_points              4495

#---- calculated data loop -----

loop_
      _pd_proc_d_spacing
      _pd_proc_intensity_total
      _pd_proc_ls_weight
      _pd_proc_intensity_bkg_calc
      _pd_calc_intensity_total
      _pd_proc_point_id
   0.50035    0.424(7)    19401.    0.3726    0.4155        1
   0.50090    0.413(7)    19904.    0.3726    0.4059        2
   0.50145    0.413(7)    19881.    0.3725    0.3976        3
   0.50200    0.383(7)    21427.    0.3725    0.3920        4
   0.50255    0.404(7)    20253.    0.3724    0.3876        5
   0.50310    0.393(7)    20813.    0.3724    0.3844        6
   0.50365    0.388(7)    21071.    0.3723    0.3823        7
   0.50420    0.386(7)    21153.    0.3722    0.3816        8
   0.50475    0.377(7)    21629.    0.3722    0.3838        9
   0.50530    0.403(7)    20235.    0.3721    0.3910       10
   0.50585    0.411(7)    19787.    0.3720    0.4084       11
   0.50639    0.431(7)    18859.    0.3720    0.4266       12
   0.50694    0.430(7)    18894.    0.3719    0.4322       13
   0.50749    0.440(7)    18430.    0.3718    0.4416       14
   0.50804    0.452(7)    17932.    0.3718    0.4625       15
   0.50859    0.477(8)    16974.    0.3717    0.4806       16
   0.50914    0.490(8)    16509.    0.3716    0.4801       17
   0.50969    0.450(7)    17959.    0.3716    0.4641       18
   0.51024    0.439(7)    18358.    0.3715    0.4453       19
   0.51079    0.428(7)    18832.    0.3714    0.4293       20
   0.51134    0.413(7)    19484.    0.3713    0.4167       21
   0.51189    0.397(7)    20236.    0.3713    0.4068       22
   0.51244    0.398(7)    20183.    0.3712    0.3990       23
   0.51299    0.387(7)    20726.    0.3711    0.3929       24
   0.51354    0.388(7)    20658.    0.3710    0.3881       25
   0.51408    0.376(7)    21273.    0.3709    0.3843       26
   0.51463    0.375(7)    21315.    0.3709    0.3813       27
   0.51518    0.373(7)    21393.    0.3708    0.3790       28
   0.51573    0.357(7)    22331.    0.3707    0.3771       29
   0.51628    0.374(7)    21304.    0.3706    0.3756       30
   0.51683    0.372(7)    21411.    0.3705    0.3745       31
   0.51738    0.376(7)    21137.    0.3704    0.3735       32
   0.51793    0.373(7)    21264.    0.3704    0.3728       33
   0.51848    0.379(7)    20901.    0.3703    0.3722       34
   0.51903    0.370(7)    21412.    0.3702    0.3717       35
   0.51958    0.367(7)    21513.    0.3701    0.3712       36
   0.52013    0.359(7)    21997.    0.3700    0.3709       37
   0.52068    0.365(7)    21629.    0.3699    0.3708       38
   0.52123    0.359(7)    21910.    0.3698    0.3708       39
   0.52178    0.369(7)    21312.    0.3697    0.3712       40
   0.52232    0.364(7)    21601.    0.3696    0.3722       41
   0.52287    0.372(7)    21117.    0.3695    0.3751       42
   0.52342    0.378(7)    20749.    0.3694    0.3820       43
   0.52397    0.398(7)    19672.    0.3693    0.3981       44
   0.52452    0.431(7)    18119.    0.3692    0.4298       45
   0.52507    0.436(7)    17918.    0.3691    0.4537       46
   0.52562    0.447(8)    17440.    0.3690    0.4445       47
   0.52617    0.423(7)    18386.    0.3689    0.4291       48
   0.52672    0.401(7)    19378.    0.3688    0.4169       49
   0.52727    0.397(7)    19572.    0.3687    0.4080       50
   0.52782    0.401(7)    19350.    0.3686    0.4028       51
   0.52837    0.403(7)    19199.    0.3685    0.4031       52
   0.52892    0.404(7)    19129.    0.3684    0.4128       53
   0.52947    0.450(8)    17176.    0.3683    0.4415       54
   0.53002    0.494(8)    15602.    0.3682    0.5048       55
   0.53056    0.588(9)    13105.    0.3681    0.6080       56
   0.53111    0.702(10)   10958.    0.3680    0.7173       57
   0.53166    0.780(10)   9842.     0.3678    0.7890       58
   0.53221    0.814(10)   9419.     0.3677    0.8263       59
   0.53276    0.807(10)   9490.     0.3676    0.7973       60
   0.53331    0.731(10)   10459.    0.3675    0.7180       61
   0.53386    0.653(9)    11697.    0.3674    0.6481       62
   0.53441    0.595(9)    12815.    0.3673    0.5962       63
   0.53496    0.546(8)    13937.    0.3672    0.5636       64
   0.53551    0.548(8)    13887.    0.3670    0.5565       65
   0.53606    0.577(9)    13162.    0.3669    0.5871       66
   0.53661    0.668(9)    11352.    0.3668    0.6608       67
   0.53716    0.745(10)   10164.    0.3667    0.7432       68
   0.53771    0.789(10)   9586.     0.3666    0.7726       69
   0.53826    0.740(10)   10209.    0.3665    0.7352       70
   0.53880    0.671(9)    11244.    0.3663    0.6701       71
   0.53935    0.600(9)    12546.    0.3662    0.6086       72
   0.53990    0.546(9)    13775.    0.3661    0.5585       73
   0.54045    0.522(8)    14372.    0.3660    0.5187       74
   0.54100    0.490(8)    15297.    0.3658    0.4869       75
   0.54155    0.461(8)    16229.    0.3657    0.4621       76
   0.54210    0.442(8)    16895.    0.3656    0.4425       77
   0.54265    0.435(8)    17167.    0.3655    0.4275       78
   0.54320    0.412(7)    18091.    0.3653    0.4169       79
   0.54375    0.405(7)    18360.    0.3652    0.4113       80
   0.54430    0.407(7)    18244.    0.3651    0.4133       81
   0.54485    0.428(8)    17324.    0.3649    0.4291       82
   0.54540    0.471(8)    15713.    0.3648    0.4630       83
   0.54595    0.484(8)    15267.    0.3647    0.4810       84
   0.54650    0.462(8)    15993.    0.3646    0.4645       85
   0.54705    0.460(8)    16028.    0.3644    0.4442       86
   0.54759    0.442(8)    16672.    0.3643    0.4273       87
   0.54814    0.423(8)    17369.    0.3642    0.4143       88
   0.54869    0.405(7)    18138.    0.3640    0.4037       89
   0.54924    0.387(7)    18929.    0.3639    0.3955       90
   0.54979    0.388(7)    18837.    0.3638    0.3889       91
   0.55034    0.393(7)    18562.    0.3636    0.3840       92
   0.55089    0.378(7)    19289.    0.3635    0.3804       93
   0.55144    0.387(7)    18792.    0.3633    0.3783       94
   0.55199    0.377(7)    19307.    0.3632    0.3783       95
   0.55254    0.375(7)    19352.    0.3631    0.3821       96
   0.55309    0.409(8)    17698.    0.3629    0.3935       97
   0.55364    0.440(8)    16439.    0.3628    0.4185       98
   0.55419    0.460(8)    15705.    0.3627    0.4499       99
   0.55474    0.475(8)    15197.    0.3625    0.4639      100
   0.55529    0.488(8)    14739.    0.3624    0.4858      101
   0.55583    0.545(9)    13201.    0.3622    0.5442      102
   0.55638    0.635(9)    11299.    0.3621    0.6449      103
   0.55693    0.767(10)   9339.     0.3619    0.7503      104
   0.55748    0.782(10)   9145.     0.3618    0.7952      105
   0.55803    0.752(10)   9492.     0.3617    0.7639      106
   0.55858    0.692(10)   10309.    0.3615    0.6975      107
   0.55913    0.627(9)    11355.    0.3614    0.6320      108
   0.55968    0.565(9)    12580.    0.3612    0.5777      109
   0.56023    0.536(9)    13234.    0.3611    0.5341      110
   0.56078    0.489(8)    14485.    0.3609    0.4992      111
   0.56133    0.468(8)    15095.    0.3608    0.4713      112
   0.56188    0.458(8)    15417.    0.3606    0.4488      113
   0.56243    0.431(8)    16341.    0.3605    0.4310      114
   0.56298    0.411(8)    17113.    0.3603    0.4167      115
   0.56353    0.406(8)    17289.    0.3602    0.4052      116
   0.56408    0.393(7)    17843.    0.3600    0.3960      117
   0.56462    0.395(8)    17705.    0.3599    0.3886      118
   0.56517    0.391(7)    17865.    0.3597    0.3831      119
   0.56572    0.373(7)    18722.    0.3596    0.3788      120
   0.56627    0.378(7)    18431.    0.3594    0.3760      121
   0.56682    0.381(7)    18249.    0.3593    0.3751      122
   0.56737    0.372(7)    18644.    0.3591    0.3774      123
   0.56792    0.383(7)    18096.    0.3590    0.3857      124
   0.56847    0.411(8)    16816.    0.3588    0.4057      125
   0.56902    0.435(8)    15881.    0.3587    0.4353      126
   0.56957    0.445(8)    15496.    0.3585    0.4430      127
   0.57012    0.451(8)    15247.    0.3584    0.4292      128
   0.57067    0.420(8)    16348.    0.3582    0.4150      129
   0.57122    0.405(8)    16918.    0.3581    0.4036      130
   0.57177    0.403(8)    16962.    0.3579    0.3945      131
   0.57232    0.389(8)    17570.    0.3577    0.3871      132
   0.57287    0.371(7)    18366.    0.3576    0.3811      133
   0.57341    0.385(8)    17659.    0.3574    0.3756      134
   0.57396    0.368(7)    18476.    0.3573    0.3719      135
   0.57451    0.364(7)    18649.    0.3571    0.3691      136
   0.57506    0.374(7)    18113.    0.3570    0.3670      137
   0.57561    0.380(8)    17767.    0.3568    0.3658      138
   0.57616    0.371(7)    18184.    0.3566    0.3658      139
   0.57671    0.374(7)    18004.    0.3565    0.3681      140
   0.57726    0.388(8)    17347.    0.3563    0.3746      141
   0.57781    0.395(8)    16997.    0.3562    0.3900      142
   0.57836    0.418(8)    16010.    0.3560    0.4196      143
   0.57891    0.445(8)    15020.    0.3558    0.4446      144
   0.57946    0.443(8)    15061.    0.3557    0.4385      145
   0.58001    0.442(8)    15062.    0.3555    0.4229      146
   0.58056    0.432(8)    15404.    0.3554    0.4096      147
   0.58111    0.407(8)    16308.    0.3552    0.3991      148
   0.58166    0.410(8)    16170.    0.3550    0.3908      149
   0.58220    0.405(8)    16327.    0.3549    0.3846      150
   0.58275    0.391(8)    16878.    0.3547    0.3806      151
   0.58330    0.390(8)    16881.    0.3546    0.3795      152
   0.58385    0.403(8)    16305.    0.3544    0.3831      153
   0.58440    0.419(8)    15654.    0.3542    0.3957      154
   0.58495    0.443(8)    14795.    0.3541    0.4261      155
   0.58550    0.490(9)    13354.    0.3539    0.4908      156
   0.58605    0.643(10)   10152.    0.3537    0.6107      157
   0.58660    0.807(11)   8075.     0.3536    0.7813      158
   0.58715    0.960(12)   6774.     0.3534    0.9373      159
   0.58770    1.000(12)   6488.     0.3532    0.9950      160
   0.58825    0.964(12)   6718.     0.3531    0.9468      161
   0.58880    0.864(12)   7484.     0.3529    0.8521      162
   0.58935    0.809(11)   7976.     0.3528    0.7590      163
   0.58990    0.718(11)   8972.     0.3526    0.6812      164
   0.59045    0.633(10)   10157.    0.3524    0.6190      165
   0.59099    0.597(10)   10750.    0.3523    0.5705      166
   0.59154    0.557(9)    11498.    0.3521    0.5350      167
   0.59209    0.553(9)    11564.    0.3519    0.5139      168
   0.59264    0.536(9)    11904.    0.3518    0.5127      169
   0.59319    0.566(9)    11250.    0.3516    0.5447      170
   0.59374    0.640(10)   9926.     0.3514    0.6362      171
   0.59429    0.848(12)   7477.     0.3513    0.8240      172
   0.59484    1.139(13)   5556.     0.3511    1.1162      173
   0.59539    1.464(15)   4317.     0.3509    1.4296      174
   0.59594    1.649(16)   3825.     0.3508    1.6040      175
   0.59649    1.550(16)   4061.     0.3506    1.5470      176
   0.59704    1.357(15)   4630.     0.3504    1.3661      177
   0.59759    1.205(14)   5204.     0.3503    1.1790      178
   0.59814    1.035(13)   6047.     0.3501    1.0205      179
   0.59869    0.891(12)   7012.     0.3499    0.8916      180
   0.59924    0.779(11)   7997.     0.3498    0.7873      181
   0.59978    0.711(11)   8747.     0.3496    0.7031      182
   0.60033    0.657(10)   9452.     0.3494    0.6350      183
   0.60088    0.598(10)   10352.    0.3493    0.5800      184
   0.60143    0.526(9)    11756.    0.3491    0.5355      185
   0.60198    0.514(9)    11998.    0.3489    0.4997      186
   0.60253    0.482(9)    12771.    0.3487    0.4708      187
   0.60308    0.463(9)    13274.    0.3486    0.4476      188
   0.60363    0.440(8)    13952.    0.3484    0.4279      189
   0.60418    0.429(8)    14261.    0.3482    0.4146      190
   0.60473    0.433(8)    14118.    0.3481    0.4059      191
   0.60528    0.398(8)    15312.    0.3479    0.4034      192
   0.60583    0.431(8)    14133.    0.3477    0.4107      193
   0.60638    0.449(9)    13514.    0.3476    0.4343      194
   0.60693    0.469(9)    12916.    0.3474    0.4675      195
   0.60748    0.494(9)    12239.    0.3472    0.4717      196
   0.60803    0.472(9)    12780.    0.3471    0.4516      197
   0.60857    0.445(9)    13550.    0.3469    0.4316      198
   0.60912    0.417(8)    14422.    0.3467    0.4153      199
   0.60967    0.401(8)    14966.    0.3466    0.4021      200
   0.61022    0.410(8)    14620.    0.3464    0.3914      201
   0.61077    0.394(8)    15173.    0.3462    0.3826      202
   0.61132    0.381(8)    15650.    0.3460    0.3755      203
   0.61187    0.373(8)    15972.    0.3459    0.3670      204
   0.61242    0.377(8)    15751.    0.3457    0.3625      205
   0.61297    0.377(8)    15707.    0.3455    0.3591      206
   0.61352    0.368(8)    16089.    0.3454    0.3564      207
   0.61407    0.345(8)    17117.    0.3452    0.3541      208
   0.61462    0.354(8)    16630.    0.3450    0.3522      209
   0.61517    0.365(8)    16106.    0.3449    0.3507      210
   0.61572    0.342(8)    17150.    0.3447    0.3494      211
   0.61627    0.351(8)    16688.    0.3445    0.3484      212
   0.61682    0.356(8)    16388.    0.3444    0.3478      213
   0.61737    0.350(8)    16647.    0.3442    0.3473      214
   0.61791    0.339(8)    17167.    0.3440    0.3473      215
   0.61846    0.348(8)    16697.    0.3438    0.3480      216
   0.61901    0.340(8)    17059.    0.3437    0.3502      217
   0.61956    0.347(8)    16657.    0.3435    0.3550      218
   0.62011    0.351(8)    16424.    0.3433    0.3654      219
   0.62066    0.370(8)    15549.    0.3432    0.3865      220
   0.62121    0.409(8)    14047.    0.3430    0.4269      221
   0.62176    0.477(9)    12010.    0.3428    0.4942      222
   0.62231    0.579(10)   9879.     0.3427    0.5797      223
   0.62286    0.631(11)   9053.     0.3425    0.6493      224
   0.62341    0.664(11)   8581.     0.3423    0.6698      225
   0.62396    0.635(11)   8945.     0.3422    0.6448      226
   0.62451    0.600(10)   9459.     0.3420    0.6027      227
   0.62506    0.548(10)   10324.    0.3418    0.5658      228
   0.62561    0.530(10)   10654.    0.3417    0.5451      229
   0.62616    0.542(10)   10397.    0.3415    0.5487      230
   0.62671    0.558(10)   10073.    0.3413    0.5746      231
   0.62725    0.538(10)   10439.    0.3412    0.5771      232
   0.62780    0.540(10)   10367.    0.3410    0.5423      233
   0.62835    0.475(9)    11761.    0.3408    0.5049      234
   0.62890    0.457(9)    12193.    0.3406    0.4741      235
   0.62945    0.436(9)    12772.    0.3405    0.4489      236
   0.63000    0.406(9)    13664.    0.3403    0.4285      237
   0.63055    0.384(8)    14424.    0.3401    0.4118      238
   0.63110    0.375(8)    14736.    0.3400    0.3982      239
   0.63165    0.367(8)    15028.    0.3398    0.3872      240
   0.63220    0.354(8)    15554.    0.3396    0.3781      241
   0.63275    0.352(8)    15583.    0.3395    0.3708      242
   0.63330    0.347(8)    15777.    0.3393    0.3648      243
   0.63385    0.343(8)    15934.    0.3391    0.3600      244
   0.63440    0.341(8)    15985.    0.3390    0.3561      245
   0.63495    0.343(8)    15890.    0.3388    0.3531      246
   0.63550    0.324(8)    16745.    0.3387    0.3509      247
   0.63605    0.333(8)    16275.    0.3385    0.3498      248
   0.63659    0.335(8)    16151.    0.3383    0.3502      249
   0.63714    0.337(8)    16028.    0.3382    0.3532      250
   0.63769    0.333(8)    16171.    0.3380    0.3610      251
   0.63824    0.342(8)    15724.    0.3378    0.3778      252
   0.63879    0.399(9)    13426.    0.3377    0.4123      253
   0.63934    0.463(9)    11545.    0.3375    0.4738      254
   0.63989    0.512(10)   10423.    0.3373    0.5358      255
   0.64044    0.519(10)   10268.    0.3372    0.5357      256
   0.64099    0.508(10)   10462.    0.3370    0.5028      257
   0.64154    0.471(9)    11262.    0.3368    0.4721      258
   0.64209    0.421(9)    12560.    0.3367    0.4469      259
   0.64264    0.417(9)    12675.    0.3365    0.4263      260
   0.64319    0.395(9)    13341.    0.3364    0.4091      261
   0.64374    0.373(8)    14088.    0.3362    0.3955      262
   0.64429    0.362(8)    14491.    0.3360    0.3844      263
   0.64484    0.370(8)    14137.    0.3359    0.3753      264
   0.64539    0.358(8)    14601.    0.3357    0.3678      265
   0.64593    0.344(8)    15128.    0.3355    0.3617      266
   0.64648    0.362(8)    14372.    0.3354    0.3567      267
   0.64703    0.346(8)    15011.    0.3352    0.3526      268
   0.64758    0.352(8)    14714.    0.3351    0.3492      269
   0.64813    0.345(8)    14961.    0.3349    0.3464      270
   0.64868    0.329(8)    15667.    0.3347    0.3441      271
   0.64923    0.327(8)    15746.    0.3346    0.3422      272
   0.64978    0.324(8)    15817.    0.3344    0.3407      273
   0.65033    0.321(8)    15938.    0.3343    0.3393      274
   0.65088    0.332(8)    15371.    0.3341    0.3382      275
   0.65143    0.313(8)    16271.    0.3339    0.3373      276
   0.65198    0.327(8)    15536.    0.3338    0.3365      277
   0.65253    0.342(8)    14833.    0.3336    0.3359      278
   0.65308    0.333(8)    15178.    0.3335    0.3353      279
   0.65363    0.324(8)    15571.    0.3333    0.3348      280
   0.65418    0.317(8)    15909.    0.3331    0.3344      281
   0.65473    0.331(8)    15199.    0.3330    0.3340      282
   0.65527    0.324(8)    15484.    0.3328    0.3336      283
   0.65582    0.325(8)    15386.    0.3327    0.3333      284
   0.65637    0.333(8)    14994.    0.3325    0.3325      285
   0.65692    0.333(8)    14953.    0.3324    0.3324      286
   0.65747    0.326(8)    15244.    0.3322    0.3323      287
   0.65802    0.322(8)    15422.    0.3320    0.3322      288
   0.65857    0.315(8)    15707.    0.3319    0.3322      289
   0.65912    0.331(8)    14900.    0.3317    0.3324      290
   0.65967    0.324(8)    15223.    0.3316    0.3329      291
   0.66022    0.326(8)    15078.    0.3314    0.3340      292
   0.66077    0.323(8)    15189.    0.3313    0.3362      293
   0.66132    0.329(8)    14867.    0.3311    0.3407      294
   0.66187    0.342(8)    14276.    0.3310    0.3496      295
   0.66242    0.372(9)    13097.    0.3308    0.3667      296
   0.66297    0.383(9)    12700.    0.3306    0.3932      297
   0.66352    0.414(9)    11710.    0.3305    0.4102      298
   0.66407    0.413(9)    11703.    0.3303    0.4038      299
   0.66462    0.396(9)    12179.    0.3302    0.3909      300
   0.66516    0.378(9)    12729.    0.3300    0.3797      301
   0.66571    0.360(9)    13330.    0.3299    0.3705      302
   0.66626    0.351(9)    13664.    0.3297    0.3629      303
   0.66681    0.367(9)    13020.    0.3296    0.3567      304
   0.66736    0.332(8)    14358.    0.3294    0.3516      305
   0.66791    0.331(8)    14383.    0.3293    0.3474      306
   0.66846    0.343(8)    13859.    0.3291    0.3440      307
   0.66901    0.347(9)    13636.    0.3290    0.3411      308
   0.66956    0.353(9)    13394.    0.3288    0.3388      309
   0.67011    0.346(9)    13644.    0.3287    0.3368      310
   0.67066    0.334(8)    14099.    0.3285    0.3352      311
   0.67121    0.333(8)    14097.    0.3284    0.3338      312
   0.67176    0.351(9)    13349.    0.3282    0.3327      313
   0.67231    0.351(9)    13319.    0.3281    0.3348      314
   0.67286    0.342(9)    13624.    0.3279    0.3367      315
   0.67341    0.354(9)    13132.    0.3278    0.3413      316
   0.67396    0.359(9)    12930.    0.3276    0.3508      317
   0.67451    0.370(9)    12495.    0.3275    0.3696      318
   0.67505    0.410(9)    11256.    0.3274    0.4061      319
   0.67560    0.475(10)   9694.     0.3272    0.4756      320
   0.67615    0.594(11)   7741.     0.3271    0.6030      321
   0.67670    0.810(13)   5659.     0.3269    0.8150      322
   0.67725    1.089(15)   4203.     0.3268    1.1057      323
   0.67780    1.401(18)   3257.     0.3266    1.3981      324
   0.67835    1.533(18)   2971.     0.3265    1.5740      325
   0.67890    1.534(18)   2962.     0.3263    1.5699      326
   0.67945    1.440(18)   3148.     0.3262    1.4323      327
   0.68000    1.261(17)   3587.     0.3261    1.2551      328
   0.68055    1.069(15)   4222.     0.3259    1.0912      329
   0.68110    0.955(15)   4712.     0.3258    0.9533      330
   0.68165    0.861(14)   5214.     0.3256    0.8399      331
   0.68220    0.737(13)   6075.     0.3255    0.7468      332
   0.68275    0.648(12)   6896.     0.3253    0.6706      333
   0.68330    0.591(12)   7549.     0.3252    0.6081      334
   0.68385    0.547(11)   8138.     0.3251    0.5568      335
   0.68440    0.505(11)   8790.     0.3249    0.5148      336
   0.68494    0.475(10)   9323.     0.3248    0.4804      337
   0.68549    0.436(10)   10121.    0.3246    0.4521      338
   0.68604    0.427(10)   10314.    0.3245    0.4290      339
   0.68659    0.401(10)   10958.    0.3244    0.4100      340
   0.68714    0.392(9)    11185.    0.3242    0.3944      341
   0.68769    0.399(10)   10954.    0.3241    0.3816      342
   0.68824    0.373(9)    11714.    0.3240    0.3710      343
   0.68879    0.359(9)    12136.    0.3238    0.3624      344
   0.68934    0.367(9)    11836.    0.3237    0.3553      345
   0.68989    0.360(9)    12037.    0.3235    0.3495      346
   0.69044    0.355(9)    12183.    0.3234    0.3446      347
   0.69099    0.360(9)    12000.    0.3233    0.3407      348
   0.69154    0.351(9)    12268.    0.3231    0.3374      349
   0.69209    0.349(9)    12291.    0.3230    0.3347      350
   0.69264    0.336(9)    12743.    0.3229    0.3324      351
   0.69319    0.336(9)    12709.    0.3227    0.3306      352
   0.69374    0.331(9)    12873.    0.3226    0.3290      353
   0.69429    0.331(9)    12848.    0.3225    0.3277      354
   0.69483    0.334(9)    12715.    0.3223    0.3223      355
   0.69538    0.313(9)    13534.    0.3222    0.3222      356
   0.69593    0.333(9)    12693.    0.3221    0.3221      357
   0.69648    0.338(9)    12473.    0.3219    0.3219      358
   0.69703    0.344(9)    12207.    0.3218    0.3218      359
   0.69758    0.324(9)    12946.    0.3217    0.3217      360
   0.69813    0.334(9)    12542.    0.3216    0.3216      361
   0.69868    0.315(9)    13232.    0.3214    0.3214      362
   0.69923    0.334(9)    12450.    0.3213    0.3213      363
   0.69978    0.348(9)    11936.    0.3212    0.3212      364
   0.70033    0.316(9)    13113.    0.3210    0.3210      365
   0.70088    0.342(9)    12082.    0.3209    0.3214      366
   0.70143    0.337(9)    12249.    0.3208    0.3217      367
   0.70198    0.321(9)    12828.    0.3207    0.3223      368
   0.70253    0.325(9)    12643.    0.3205    0.3237      369
   0.70308    0.352(9)    11647.    0.3204    0.3262      370
   0.70363    0.327(9)    12485.    0.3203    0.3312      371
   0.70418    0.328(9)    12425.    0.3202    0.3404      372
   0.70473    0.336(9)    12085.    0.3200    0.3577      373
   0.70527    0.389(10)   10426.    0.3199    0.3901      374
   0.70582    0.465(11)   8708.     0.3198    0.4499      375
   0.70637    0.559(12)   7221.     0.3197    0.5456      376
   0.70692    0.657(13)   6127.     0.3195    0.6264      377
   0.70747    0.615(12)   6532.     0.3194    0.6213      378
   0.70802    0.580(12)   6907.     0.3193    0.5737      379
   0.70857    0.540(12)   7406.     0.3192    0.5285      380
   0.70912    0.506(11)   7874.     0.3190    0.4911      381
   0.70967    0.449(11)   8853.     0.3189    0.4604      382
   0.71022    0.445(11)   8915.     0.3188    0.4351      383
   0.71077    0.429(10)   9233.     0.3187    0.4142      384
   0.71132    0.406(10)   9722.     0.3186    0.3971      385
   0.71187    0.384(10)   10270.    0.3184    0.3830      386
   0.71242    0.371(10)   10585.    0.3183    0.3714      387
   0.71297    0.387(10)   10125.    0.3182    0.3643      388
   0.71352    0.354(10)   11044.    0.3181    0.3585      389
   0.71407    0.356(10)   10959.    0.3180    0.3559      390
   0.71462    0.362(10)   10751.    0.3178    0.3577      391
   0.71517    0.374(10)   10375.    0.3177    0.3665      392
   0.71571    0.362(10)   10708.    0.3176    0.3871      393
   0.71626    0.405(10)   9540.     0.3175    0.4286      394
   0.71681    0.496(11)   7775.     0.3174    0.5067      395
   0.71736    0.610(13)   6308.     0.3173    0.6433      396
   0.71791    0.849(15)   4518.     0.3172    0.8544      397
   0.71846    1.135(17)   3370.     0.3170    1.1189      398
   0.71901    1.366(19)   2795.     0.3169    1.3585      399
   0.71956    1.495(20)   2547.     0.3168    1.4801      400
   0.72011    1.434(19)   2650.     0.3167    1.4527      401
   0.72066    1.304(19)   2906.     0.3166    1.3268      402
   0.72121    1.175(18)   3218.     0.3165    1.1721      403
   0.72176    1.037(17)   3638.     0.3164    1.0302      404
   0.72231    0.936(16)   4020.     0.3162    0.9140      405
   0.72286    0.800(15)   4691.     0.3161    0.8260      406
   0.72341    0.706(14)   5304.     0.3160    0.7673      407
   0.72396    0.706(14)   5290.     0.3159    0.7473      408
   0.72451    0.768(14)   4852.     0.3158    0.7798      409
   0.72506    0.869(15)   4277.     0.3157    0.8732      410
   0.72561    0.903(16)   4106.     0.3156    0.9520      411
   0.72615    0.904(16)   4091.     0.3155    0.9142      412
   0.72670    0.801(15)   4609.     0.3154    0.8184      413
   0.72725    0.714(14)   5158.     0.3153    0.7298      414
   0.72780    0.666(13)   5515.     0.3152    0.6564      415
   0.72835    0.579(13)   6323.     0.3150    0.5960      416
   0.72890    0.545(12)   6700.     0.3149    0.5463      417
   0.72945    0.493(12)   7390.     0.3148    0.5053      418
   0.73000    0.468(11)   7769.     0.3147    0.4715      419
   0.73055    0.437(11)   8307.     0.3146    0.4437      420
   0.73110    0.410(11)   8824.     0.3145    0.4208      421
   0.73165    0.397(10)   9093.     0.3144    0.4019      422
   0.73220    0.375(10)   9591.     0.3143    0.3864      423
   0.73275    0.368(10)   9761.     0.3142    0.3735      424
   0.73330    0.357(10)   10024.    0.3141    0.3629      425
   0.73385    0.349(10)   10239.    0.3140    0.3542      426
   0.73440    0.339(10)   10510.    0.3139    0.3470      427
   0.73495    0.344(10)   10330.    0.3138    0.3410      428
   0.73550    0.358(10)   9916.     0.3137    0.3361      429
   0.73605    0.338(10)   10478.    0.3136    0.3321      430
   0.73659    0.329(10)   10732.    0.3135    0.3287      431
   0.73714    0.319(10)   11060.    0.3134    0.3259      432
   0.73769    0.343(10)   10248.    0.3133    0.3236      433
   0.73824    0.318(10)   11021.    0.3132    0.3217      434
   0.73879    0.333(10)   10497.    0.3131    0.3201      435
   0.73934    0.335(10)   10419.    0.3130    0.3174      436
   0.73989    0.322(10)   10793.    0.3129    0.3165      437
   0.74044    0.321(10)   10798.    0.3128    0.3158      438
   0.74099    0.299(9)    11564.    0.3127    0.3151      439
   0.74154    0.318(10)   10858.    0.3126    0.3146      440
   0.74209    0.322(10)   10708.    0.3125    0.3125      441
   0.74264    0.309(9)    11137.    0.3124    0.3124      442
   0.74319    0.311(10)   11041.    0.3123    0.3123      443
   0.74374    0.325(10)   10513.    0.3122    0.3122      444
   0.74429    0.330(10)   10350.    0.3121    0.3121      445
   0.74484    0.321(10)   10601.    0.3120    0.3120      446
   0.74539    0.312(10)   10888.    0.3119    0.3119      447
   0.74594    0.305(9)    11118.    0.3118    0.3118      448
   0.74649    0.316(10)   10691.    0.3118    0.3118      449
   0.74704    0.320(10)   10540.    0.3117    0.3117      450
   0.74758    0.317(10)   10617.    0.3116    0.3116      451
   0.74813    0.314(10)   10695.    0.3115    0.3115      452
   0.74868    0.342(10)   9778.     0.3114    0.3114      453
   0.74923    0.313(10)   10651.    0.3113    0.3113      454
   0.74978    0.323(10)   10294.    0.3112    0.3112      455
   0.75033    0.328(10)   10140.    0.3111    0.3111      456
   0.75088    0.308(10)   10774.    0.3110    0.3110      457
   0.75143    0.299(10)   11057.    0.3109    0.3109      458
   0.75198    0.301(10)   10959.    0.3108    0.3108      459
   0.75253    0.329(10)   10007.    0.3108    0.3108      460
   0.75308    0.306(10)   10711.    0.3107    0.3107      461
   0.75363    0.297(10)   11009.    0.3106    0.3106      462
   0.75418    0.309(10)   10554.    0.3105    0.3111      463
   0.75473    0.327(10)   9960.     0.3104    0.3115      464
   0.75528    0.320(10)   10139.    0.3103    0.3123      465
   0.75583    0.313(10)   10338.    0.3102    0.3138      466
   0.75638    0.312(10)   10359.    0.3101    0.3164      467
   0.75693    0.315(10)   10247.    0.3101    0.3213      468
   0.75748    0.315(10)   10227.    0.3100    0.3300      469
   0.75803    0.333(10)   9634.     0.3099    0.3455      470
   0.75857    0.370(11)   8663.     0.3098    0.3733      471
   0.75912    0.437(12)   7300.     0.3097    0.4226      472
   0.75967    0.526(13)   6055.     0.3096    0.5013      473
   0.76022    0.590(14)   5386.     0.3095    0.5786      474
   0.76077    0.600(14)   5283.     0.3095    0.5904      475
   0.76132    0.565(13)   5599.     0.3094    0.5526      476
   0.76187    0.537(13)   5877.     0.3093    0.5108      477
   0.76242    0.475(12)   6627.     0.3092    0.4756      478
   0.76297    0.457(12)   6876.     0.3091    0.4465      479
   0.76352    0.414(11)   7571.     0.3091    0.4224      480
   0.76407    0.405(11)   7706.     0.3090    0.4026      481
   0.76462    0.399(11)   7804.     0.3089    0.3862      482
   0.76517    0.395(11)   7860.     0.3088    0.3726      483
   0.76572    0.367(11)   8455.     0.3087    0.3614      484
   0.76627    0.358(11)   8641.     0.3086    0.3522      485
   0.76682    0.331(10)   9314.     0.3086    0.3445      486
   0.76737    0.341(11)   9021.     0.3085    0.3381      487
   0.76792    0.340(11)   9037.     0.3084    0.3329      488
   0.76847    0.334(10)   9177.     0.3083    0.3285      489
   0.76902    0.328(10)   9314.     0.3083    0.3249      490
   0.76956    0.314(10)   9705.     0.3082    0.3220      491
   0.77011    0.320(10)   9498.     0.3081    0.3195      492
   0.77066    0.315(10)   9630.     0.3080    0.3174      493
   0.77121    0.321(10)   9424.     0.3079    0.3157      494
   0.77176    0.324(10)   9311.     0.3079    0.3143      495
   0.77231    0.326(10)   9246.     0.3078    0.3131      496
   0.77286    0.312(10)   9633.     0.3077    0.3121      497
   0.77341    0.303(10)   9881.     0.3076    0.3112      498
   0.77396    0.320(10)   9339.     0.3076    0.3105      499
   0.77451    0.317(10)   9392.     0.3075    0.3100      500
   0.77506    0.316(10)   9405.     0.3074    0.3094      501
   0.77561    0.320(10)   9280.     0.3073    0.3090      502
   0.77616    0.308(10)   9620.     0.3073    0.3087      503
   0.77671    0.331(11)   8907.     0.3072    0.3083      504
   0.77726    0.321(10)   9163.     0.3071    0.3083      505
   0.77781    0.315(10)   9325.     0.3071    0.3082      506
   0.77836    0.323(11)   9064.     0.3070    0.3083      507
   0.77891    0.323(11)   9048.     0.3069    0.3086      508
   0.77946    0.308(10)   9475.     0.3068    0.3100      509
   0.78001    0.329(11)   8837.     0.3068    0.3118      510
   0.78056    0.336(11)   8640.     0.3067    0.3149      511
   0.78110    0.333(11)   8687.     0.3066    0.3210      512
   0.78165    0.339(11)   8512.     0.3066    0.3317      513
   0.78220    0.367(11)   7838.     0.3065    0.3506      514
   0.78275    0.410(12)   7005.     0.3064    0.3828      515
   0.78330    0.455(13)   6301.     0.3063    0.4302      516
   0.78385    0.474(13)   6025.     0.3063    0.4775      517
   0.78440    0.524(14)   5438.     0.3062    0.5194      518
   0.78495    0.547(14)   5203.     0.3061    0.5861      519
   0.78550    0.681(15)   4169.     0.3061    0.7112      520
   0.78605    0.897(18)   3154.     0.3060    0.9210      521
   0.78660    1.212(21)   2329.     0.3059    1.2225      522
   0.78715    1.583(24)   1779.     0.3059    1.5712      523
   0.78770    1.859(26)   1512.     0.3058    1.8650      524
   0.78825    1.979(27)   1416.     0.3057    2.0005      525
   0.78880    1.887(26)   1481.     0.3057    1.9514      526
   0.78935    1.716(25)   1625.     0.3056    1.7767      527
   0.78990    1.633(24)   1704.     0.3055    1.5588      528
   0.79045    1.346(22)   2062.     0.3055    1.3510      529
   0.79100    1.213(21)   2281.     0.3054    1.1717      530
   0.79155    1.051(20)   2628.     0.3053    1.0221      531
   0.79210    0.902(18)   3054.     0.3053    0.8981      532
   0.79264    0.792(17)   3469.     0.3052    0.7955      533
   0.79319    0.695(16)   3944.     0.3052    0.7107      534
   0.79374    0.645(15)   4241.     0.3051    0.6405      535
   0.79429    0.582(15)   4688.     0.3050    0.5824      536
   0.79484    0.531(14)   5124.     0.3050    0.5344      537
   0.79539    0.511(14)   5315.     0.3049    0.4947      538
   0.79594    0.452(13)   5994.     0.3048    0.4618      539
   0.79649    0.415(12)   6514.     0.3048    0.4346      540
   0.79704    0.406(12)   6636.     0.3047    0.4121      541
   0.79759    0.391(12)   6873.     0.3047    0.3934      542
   0.79814    0.375(12)   7145.     0.3046    0.3780      543
   0.79869    0.366(12)   7306.     0.3045    0.3653      544
   0.79924    0.360(12)   7407.     0.3045    0.3547      545
   0.79979    0.351(11)   7575.     0.3044    0.3468      546
   0.80034    0.368(12)   7207.     0.3043    0.3402      547
   0.80089    0.356(12)   7445.     0.3043    0.3353      548
   0.80144    0.362(12)   7300.     0.3042    0.3323      549
   0.80199    0.374(12)   7051.     0.3042    0.3314      550
   0.80254    0.363(12)   7244.     0.3041    0.3337      551
   0.80309    0.352(12)   7451.     0.3040    0.3406      552
   0.80364    0.362(12)   7234.     0.3040    0.3549      553
   0.80418    0.366(12)   7123.     0.3039    0.3818      554
   0.80473    0.425(13)   6127.     0.3039    0.4299      555
   0.80528    0.495(14)   5243.     0.3038    0.5136      556
   0.80583    0.618(15)   4188.     0.3038    0.6550      557
   0.80638    0.868(18)   2977.     0.3037    0.8802      558
   0.80693    1.199(22)   2150.     0.3036    1.2012      559
   0.80748    1.622(25)   1585.     0.3036    1.5837      560
   0.80803    1.934(27)   1326.     0.3035    1.9288      561
   0.80858    2.112(29)   1212.     0.3035    2.1276      562
   0.80913    2.136(29)   1195.     0.3034    2.1267      563
   0.80968    1.941(28)   1312.     0.3034    1.9689      564
   0.81023    1.748(26)   1453.     0.3033    1.7408      565
   0.81078    1.559(25)   1625.     0.3032    1.5099      566
   0.81133    1.312(23)   1927.     0.3032    1.3056      567
   0.81188    1.144(21)   2204.     0.3031    1.1337      568
   0.81243    1.010(20)   2490.     0.3031    0.9908      569
   0.81298    0.856(18)   2930.     0.3030    0.8725      570
   0.81353    0.753(17)   3323.     0.3030    0.7745      571
   0.81408    0.691(17)   3611.     0.3029    0.6933      572
   0.81463    0.573(15)   4344.     0.3029    0.6261      573
   0.81518    0.545(15)   4559.     0.3028    0.5705      574
   0.81573    0.500(14)   4957.     0.3028    0.5244      575
   0.81627    0.472(14)   5242.     0.3027    0.4862      576
   0.81682    0.420(13)   5876.     0.3026    0.4546      577
   0.81737    0.422(13)   5825.     0.3026    0.4284      578
   0.81792    0.409(13)   6005.     0.3025    0.4067      579
   0.81847    0.383(13)   6389.     0.3025    0.3887      580
   0.81902    0.363(12)   6724.     0.3024    0.3739      581
   0.81957    0.361(12)   6744.     0.3024    0.3615      582
   0.82012    0.356(12)   6827.     0.3023    0.3513      583
   0.82067    0.368(12)   6581.     0.3023    0.3428      584
   0.82122    0.344(12)   7029.     0.3022    0.3358      585
   0.82177    0.306(11)   7875.     0.3022    0.3306      586
   0.82232    0.324(12)   7425.     0.3021    0.3263      587
   0.82287    0.341(12)   7037.     0.3021    0.3231      588
   0.82342    0.339(12)   7071.     0.3020    0.3211      589
   0.82397    0.334(12)   7160.     0.3020    0.3206      590
   0.82452    0.332(12)   7170.     0.3019    0.3223      591
   0.82507    0.327(12)   7264.     0.3019    0.3270      592
   0.82562    0.337(12)   7047.     0.3018    0.3368      593
   0.82617    0.355(12)   6670.     0.3018    0.3547      594
   0.82672    0.398(13)   5931.     0.3017    0.3862      595
   0.82727    0.457(14)   5155.     0.3017    0.4360      596
   0.82782    0.515(15)   4561.     0.3016    0.4896      597
   0.82836    0.527(15)   4447.     0.3016    0.5068      598
   0.82891    0.470(14)   4969.     0.3015    0.4829      599
   0.82946    0.469(14)   4967.     0.3015    0.4531      600
   0.83001    0.450(14)   5165.     0.3014    0.4272      601
   0.83056    0.416(13)   5582.     0.3014    0.4056      602
   0.83111    0.389(13)   5950.     0.3013    0.3877      603
   0.83166    0.380(13)   6070.     0.3013    0.3729      604
   0.83221    0.361(13)   6374.     0.3012    0.3605      605
   0.83276    0.354(12)   6491.     0.3012    0.3503      606
   0.83331    0.356(12)   6444.     0.3011    0.3419      607
   0.83386    0.327(12)   6996.     0.3011    0.3348      608
   0.83441    0.325(12)   7009.     0.3010    0.3290      609
   0.83496    0.308(12)   7393.     0.3010    0.3242      610
   0.83551    0.323(12)   7016.     0.3009    0.3202      611
   0.83606    0.332(12)   6815.     0.3009    0.3168      612
   0.83661    0.307(12)   7349.     0.3008    0.3140      613
   0.83716    0.324(12)   6952.     0.3008    0.3117      614
   0.83771    0.313(12)   7184.     0.3007    0.3098      615
   0.83826    0.310(12)   7232.     0.3007    0.3082      616
   0.83881    0.319(12)   7015.     0.3006    0.3069      617
   0.83936    0.316(12)   7070.     0.3006    0.3058      618
   0.83991    0.295(12)   7539.     0.3005    0.3048      619
   0.84046    0.299(12)   7423.     0.3005    0.3040      620
   0.84100    0.284(11)   7786.     0.3004    0.3034      621
   0.84155    0.300(12)   7362.     0.3004    0.3028      622
   0.84210    0.307(12)   7175.     0.3004    0.3024      623
   0.84265    0.316(12)   6965.     0.3003    0.3020      624
   0.84320    0.309(12)   7095.     0.3003    0.3016      625
   0.84375    0.302(12)   7253.     0.3002    0.3014      626
   0.84430    0.297(12)   7352.     0.3002    0.3011      627
   0.84485    0.313(12)   6951.     0.3001    0.3009      628
   0.84540    0.300(12)   7236.     0.3001    0.3007      629
   0.84595    0.302(12)   7179.     0.3000    0.3006      630
   0.84650    0.329(12)   6562.     0.3000    0.3004      631
   0.84705    0.301(12)   7175.     0.2999    0.3003      632
   0.84760    0.300(12)   7173.     0.2999    0.3002      633
   0.84815    0.302(12)   7095.     0.2998    0.2998      634
   0.84870    0.299(12)   7148.     0.2998    0.2998      635
   0.84925    0.303(12)   7037.     0.2998    0.2998      636
   0.84980    0.341(13)   6242.     0.2997    0.2997      637
   0.85035    0.316(12)   6720.     0.2997    0.2997      638
   0.85090    0.319(12)   6638.     0.2996    0.2996      639
   0.85145    0.313(12)   6766.     0.2996    0.2996      640
   0.85200    0.294(12)   7179.     0.2995    0.2995      641
   0.85255    0.301(12)   6986.     0.2995    0.3020      642
   0.85310    0.303(12)   6920.     0.2994    0.3036      643
   0.85364    0.300(12)   6974.     0.2994    0.3064      644
   0.85419    0.294(12)   7098.     0.2994    0.3110      645
   0.85474    0.318(12)   6562.     0.2993    0.3188      646
   0.85529    0.331(13)   6274.     0.2993    0.3318      647
   0.85584    0.337(13)   6146.     0.2992    0.3535      648
   0.85639    0.355(13)   5833.     0.2992    0.3898      649
   0.85694    0.451(15)   4577.     0.2991    0.4502      650
   0.85749    0.581(17)   3545.     0.2991    0.5477      651
   0.85804    0.696(18)   2953.     0.2990    0.6757      652
   0.85859    0.757(19)   2708.     0.2990    0.7628      653
   0.85914    0.778(20)   2628.     0.2990    0.7497      654
   0.85969    0.718(19)   2841.     0.2989    0.6847      655
   0.86024    0.644(18)   3157.     0.2989    0.6198      656
   0.86079    0.573(17)   3545.     0.2988    0.5652      657
   0.86134    0.540(16)   3750.     0.2988    0.5198      658
   0.86189    0.507(16)   3984.     0.2987    0.4822      659
   0.86244    0.433(15)   4650.     0.2987    0.4509      660
   0.86299    0.411(14)   4885.     0.2986    0.4250      661
   0.86354    0.415(14)   4833.     0.2986    0.4034      662
   0.86409    0.387(14)   5163.     0.2986    0.3855      663
   0.86464    0.366(14)   5455.     0.2985    0.3707      664
   0.86519    0.347(13)   5735.     0.2985    0.3584      665
   0.86574    0.350(13)   5675.     0.2984    0.3481      666
   0.86629    0.335(13)   5920.     0.2984    0.3396      667
   0.86683    0.358(13)   5517.     0.2983    0.3326      668
   0.86738    0.336(13)   5863.     0.2983    0.3267      669
   0.86793    0.322(13)   6111.     0.2982    0.3218      670
   0.86848    0.313(13)   6260.     0.2982    0.3178      671
   0.86903    0.325(13)   6024.     0.2982    0.3144      672
   0.86958    0.308(13)   6344.     0.2981    0.3116      673
   0.87013    0.316(13)   6170.     0.2981    0.3092      674
   0.87068    0.323(13)   6023.     0.2980    0.3073      675
   0.87123    0.304(13)   6370.     0.2980    0.3057      676
   0.87178    0.308(13)   6276.     0.2979    0.3043      677
   0.87233    0.325(13)   5937.     0.2979    0.3038      678
   0.87288    0.312(13)   6174.     0.2979    0.3033      679
   0.87343    0.340(13)   5646.     0.2978    0.3032      680
   0.87398    0.332(13)   5778.     0.2978    0.3036      681
   0.87453    0.305(13)   6263.     0.2977    0.3049      682
   0.87508    0.330(13)   5778.     0.2977    0.3074      683
   0.87563    0.316(13)   6018.     0.2976    0.3120      684
   0.87618    0.337(13)   5633.     0.2976    0.3199      685
   0.87673    0.357(14)   5299.     0.2975    0.3331      686
   0.87728    0.375(14)   5035.     0.2975    0.3550      687
   0.87783    0.424(15)   4446.     0.2975    0.3907      688
   0.87838    0.484(16)   3880.     0.2974    0.4473      689
   0.87893    0.576(18)   3254.     0.2974    0.5309      690
   0.87948    0.640(18)   2924.     0.2973    0.6427      691
   0.88002    0.759(20)   2458.     0.2973    0.7674      692
   0.88057    0.844(21)   2206.     0.2972    0.8753      693
   0.88112    0.897(22)   2069.     0.2972    0.9349      694
   0.88167    0.886(22)   2089.     0.2972    0.9332      695
   0.88222    0.871(22)   2122.     0.2971    0.8823      696
   0.88277    0.776(21)   2376.     0.2971    0.8070      697
   0.88332    0.707(20)   2602.     0.2970    0.7283      698
   0.88387    0.675(19)   2717.     0.2970    0.6571      699
   0.88442    0.602(18)   3043.     0.2969    0.5964      700
   0.88497    0.553(17)   3301.     0.2969    0.5456      701
   0.88552    0.514(17)   3541.     0.2968    0.5034      702
   0.88607    0.473(16)   3844.     0.2968    0.4684      703
   0.88662    0.451(16)   4023.     0.2968    0.4392      704
   0.88717    0.415(15)   4361.     0.2967    0.4150      705
   0.88772    0.406(15)   4441.     0.2967    0.3949      706
   0.88827    0.388(15)   4635.     0.2966    0.3782      707
   0.88882    0.342(14)   5251.     0.2966    0.3644      708
   0.88937    0.346(14)   5184.     0.2965    0.3528      709
   0.88992    0.337(14)   5296.     0.2965    0.3432      710
   0.89047    0.345(14)   5168.     0.2964    0.3353      711
   0.89102    0.332(14)   5353.     0.2964    0.3286      712
   0.89157    0.329(14)   5391.     0.2964    0.3231      713
   0.89212    0.323(13)   5488.     0.2963    0.3185      714
   0.89267    0.301(13)   5862.     0.2963    0.3147      715
   0.89322    0.322(14)   5464.     0.2962    0.3116      716
   0.89376    0.328(14)   5363.     0.2962    0.3089      717
   0.89431    0.311(13)   5641.     0.2961    0.3067      718
   0.89486    0.324(14)   5406.     0.2961    0.3049      719
   0.89541    0.301(13)   5789.     0.2960    0.3033      720
   0.89596    0.294(13)   5931.     0.2960    0.3021      721
   0.89651    0.296(13)   5868.     0.2959    0.3010      722
   0.89706    0.303(13)   5718.     0.2959    0.3001      723
   0.89761    0.294(13)   5882.     0.2959    0.2993      724
   0.89816    0.314(14)   5487.     0.2958    0.2987      725
   0.89871    0.304(13)   5659.     0.2958    0.2982      726
   0.89926    0.290(13)   5927.     0.2957    0.2977      727
   0.89981    0.310(13)   5521.     0.2957    0.2973      728
   0.90036    0.285(13)   5991.     0.2956    0.2970      729
   0.90091    0.293(13)   5808.     0.2956    0.2967      730
   0.90146    0.274(13)   6202.     0.2955    0.2955      731
   0.90201    0.282(13)   6018.     0.2955    0.2955      732
   0.90256    0.296(13)   5715.     0.2954    0.2954      733
   0.90311    0.265(13)   6375.     0.2954    0.2954      734
   0.90366    0.294(13)   5729.     0.2954    0.2954      735
   0.90421    0.310(14)   5418.     0.2953    0.2953      736
   0.90476    0.292(13)   5745.     0.2953    0.2953      737
   0.90531    0.287(13)   5825.     0.2952    0.2952      738
   0.90586    0.292(13)   5714.     0.2952    0.2952      739
   0.90641    0.270(13)   6155.     0.2951    0.2951      740
   0.90696    0.272(13)   6099.     0.2951    0.2951      741
   0.90750    0.299(13)   5543.     0.2950    0.2950      742
   0.90805    0.298(13)   5539.     0.2950    0.2950      743
   0.90860    0.293(13)   5627.     0.2949    0.2949      744
   0.90915    0.282(13)   5830.     0.2949    0.2953      745
   0.90970    0.288(13)   5692.     0.2948    0.2956      746
   0.91025    0.272(13)   6008.     0.2948    0.2960      747
   0.91080    0.261(13)   6261.     0.2947    0.2967      748
   0.91135    0.285(13)   5709.     0.2947    0.2978      749
   0.91190    0.296(13)   5493.     0.2947    0.2997      750
   0.91245    0.297(14)   5456.     0.2946    0.3028      751
   0.91300    0.275(13)   5881.     0.2946    0.3078      752
   0.91355    0.299(14)   5393.     0.2945    0.3158      753
   0.91410    0.289(13)   5576.     0.2945    0.3289      754
   0.91465    0.298(14)   5387.     0.2944    0.3500      755
   0.91520    0.346(15)   4628.     0.2944    0.3841      756
   0.91575    0.418(16)   3827.     0.2943    0.4391      757
   0.91630    0.509(18)   3134.     0.2943    0.5275      758
   0.91685    0.671(21)   2371.     0.2942    0.6619      759
   0.91740    0.859(23)   1849.     0.2942    0.8191      760
   0.91795    0.855(23)   1851.     0.2941    0.9062      761
   0.91850    0.867(23)   1823.     0.2941    0.8749      762
   0.91905    0.799(23)   1974.     0.2940    0.7900      763
   0.91960    0.735(22)   2140.     0.2940    0.7073      764
   0.92015    0.650(20)   2414.     0.2939    0.6376      765
   0.92070    0.564(19)   2775.     0.2939    0.5796      766
   0.92125    0.527(18)   2964.     0.2938    0.5314      767
   0.92179    0.478(18)   3263.     0.2938    0.4913      768
   0.92234    0.443(17)   3512.     0.2937    0.4579      769
   0.92289    0.406(16)   3817.     0.2937    0.4302      770
   0.92344    0.375(16)   4127.     0.2936    0.4071      771
   0.92399    0.365(15)   4232.     0.2936    0.3880      772
   0.92454    0.337(15)   4569.     0.2935    0.3720      773
   0.92509    0.340(15)   4522.     0.2935    0.3587      774
   0.92564    0.322(15)   4756.     0.2934    0.3477      775
   0.92619    0.335(15)   4567.     0.2934    0.3385      776
   0.92674    0.307(14)   4963.     0.2933    0.3308      777
   0.92729    0.323(15)   4718.     0.2933    0.3244      778
   0.92784    0.281(14)   5413.     0.2932    0.3191      779
   0.92839    0.284(14)   5337.     0.2932    0.3147      780
   0.92894    0.317(14)   4769.     0.2931    0.3110      781
   0.92949    0.314(14)   4797.     0.2931    0.3080      782
   0.93004    0.305(14)   4931.     0.2930    0.3054      783
   0.93059    0.308(14)   4865.     0.2930    0.3033      784
   0.93114    0.278(14)   5377.     0.2929    0.3015      785
   0.93169    0.300(14)   4981.     0.2929    0.3000      786
   0.93224    0.286(14)   5214.     0.2928    0.2987      787
   0.93279    0.295(14)   5036.     0.2928    0.2977      788
   0.93334    0.307(14)   4837.     0.2927    0.2968      789
   0.93389    0.277(14)   5343.     0.2927    0.2961      790
   0.93444    0.299(14)   4933.     0.2926    0.2954      791
   0.93499    0.284(14)   5179.     0.2925    0.2949      792
   0.93554    0.280(14)   5243.     0.2925    0.2944      793
   0.93609    0.281(14)   5219.     0.2924    0.2941      794
   0.93663    0.319(15)   4593.     0.2924    0.2937      795
   0.93718    0.294(14)   4965.     0.2923    0.2935      796
   0.93773    0.305(14)   4775.     0.2923    0.2923      797
   0.93828    0.267(14)   5439.     0.2922    0.2922      798
   0.93883    0.293(14)   4954.     0.2922    0.2922      799
   0.93938    0.293(14)   4943.     0.2921    0.2921      800
   0.93993    0.279(14)   5177.     0.2921    0.2921      801
   0.94048    0.313(15)   4604.     0.2920    0.2920      802
   0.94103    0.276(14)   5194.     0.2920    0.2920      803
   0.94158    0.274(14)   5223.     0.2919    0.2919      804
   0.94213    0.283(14)   5044.     0.2918    0.2918      805
   0.94268    0.278(14)   5135.     0.2918    0.2918      806
   0.94323    0.289(14)   4925.     0.2917    0.2917      807
   0.94378    0.282(14)   5037.     0.2917    0.2917      808
   0.94433    0.285(14)   4964.     0.2916    0.2916      809
   0.94488    0.284(14)   4978.     0.2916    0.2916      810
   0.94543    0.286(14)   4930.     0.2915    0.2915      811
   0.94598    0.292(14)   4824.     0.2915    0.2915      812
   0.94653    0.301(15)   4654.     0.2914    0.2914      813
   0.94708    0.290(14)   4827.     0.2913    0.2913      814
   0.94763    0.306(15)   4557.     0.2913    0.2913      815
   0.94818    0.295(15)   4724.     0.2912    0.2912      816
   0.94873    0.294(15)   4725.     0.2912    0.2912      817
   0.94928    0.280(14)   4958.     0.2911    0.2911      818
   0.94983    0.295(15)   4693.     0.2911    0.2911      819
   0.95038    0.288(14)   4789.     0.2910    0.2910      820
   0.95093    0.285(14)   4828.     0.2909    0.2913      821
   0.95148    0.293(15)   4686.     0.2909    0.2914      822
   0.95202    0.290(15)   4723.     0.2908    0.2916      823
   0.95257    0.306(15)   4477.     0.2908    0.2920      824
   0.95312    0.277(14)   4927.     0.2907    0.2926      825
   0.95367    0.280(14)   4866.     0.2907    0.2937      826
   0.95422    0.305(15)   4458.     0.2906    0.2953      827
   0.95477    0.274(14)   4938.     0.2905    0.2980      828
   0.95532    0.280(14)   4838.     0.2905    0.3023      829
   0.95587    0.300(15)   4494.     0.2904    0.3091      830
   0.95642    0.296(15)   4552.     0.2904    0.3199      831
   0.95697    0.327(16)   4108.     0.2903    0.3370      832
   0.95752    0.363(16)   3686.     0.2903    0.3641      833
   0.95807    0.424(18)   3152.     0.2902    0.4069      834
   0.95862    0.529(20)   2520.     0.2901    0.4729      835
   0.95917    0.561(21)   2374.     0.2901    0.5618      836
   0.95972    0.674(23)   1969.     0.2900    0.6388      837
   0.96027    0.638(22)   2076.     0.2900    0.6538      838
   0.96082    0.614(22)   2153.     0.2899    0.6148      839
   0.96137    0.582(21)   2264.     0.2898    0.5633      840
   0.96192    0.537(20)   2448.     0.2898    0.5175      841
   0.96247    0.475(19)   2765.     0.2897    0.4792      842
   0.96302    0.443(18)   2956.     0.2897    0.4474      843
   0.96357    0.413(18)   3167.     0.2896    0.4209      844
   0.96412    0.386(17)   3378.     0.2895    0.3988      845
   0.96467    0.351(16)   3701.     0.2895    0.3804      846
   0.96522    0.347(16)   3741.     0.2894    0.3651      847
   0.96577    0.351(16)   3683.     0.2893    0.3523      848
   0.96632    0.376(17)   3433.     0.2893    0.3417      849
   0.96687    0.303(15)   4247.     0.2892    0.3328      850
   0.96741    0.289(15)   4456.     0.2892    0.3255      851
   0.96796    0.299(15)   4296.     0.2891    0.3193      852
   0.96851    0.294(15)   4356.     0.2890    0.3142      853
   0.96906    0.301(15)   4246.     0.2890    0.3099      854
   0.96961    0.330(16)   3864.     0.2889    0.3063      855
   0.97016    0.282(15)   4501.     0.2888    0.3033      856
   0.97071    0.284(15)   4468.     0.2888    0.3008      857
   0.97126    0.306(16)   4137.     0.2887    0.2988      858
   0.97181    0.300(15)   4205.     0.2887    0.2970      859
   0.97236    0.292(15)   4311.     0.2886    0.2955      860
   0.97291    0.282(15)   4449.     0.2885    0.2943      861
   0.97346    0.281(15)   4466.     0.2885    0.2933      862
   0.97401    0.263(14)   4757.     0.2884    0.2924      863
   0.97456    0.290(15)   4303.     0.2883    0.2917      864
   0.97511    0.296(15)   4202.     0.2883    0.2910      865
   0.97566    0.275(15)   4514.     0.2882    0.2905      866
   0.97621    0.287(15)   4316.     0.2881    0.2901      867
   0.97676    0.285(15)   4333.     0.2881    0.2897      868
   0.97731    0.283(15)   4363.     0.2880    0.2893      869
   0.97786    0.271(15)   4538.     0.2879    0.2891      870
   0.97841    0.274(15)   4491.     0.2879    0.2888      871
   0.97896    0.285(15)   4304.     0.2878    0.2886      872
   0.97951    0.300(16)   4074.     0.2877    0.2884      873
   0.98006    0.319(16)   3827.     0.2877    0.2877      874
   0.98061    0.276(15)   4410.     0.2876    0.2876      875
   0.98116    0.300(16)   4052.     0.2876    0.2876      876
   0.98171    0.269(15)   4504.     0.2875    0.2875      877
   0.98226    0.282(15)   4287.     0.2874    0.2874      878
   0.98281    0.264(15)   4561.     0.2874    0.2874      879
   0.98336    0.290(16)   4151.     0.2873    0.2873      880
   0.98390    0.283(15)   4241.     0.2872    0.2872      881
   0.98445    0.290(16)   4125.     0.2872    0.2872      882
   0.98500    0.279(15)   4278.     0.2871    0.2871      883
   0.98555    0.255(15)   4679.     0.2870    0.2870      884
   0.98610    0.289(16)   4117.     0.2869    0.2869      885
   0.98665    0.279(15)   4259.     0.2869    0.2869      886
   0.98720    0.275(15)   4305.     0.2868    0.2868      887
   0.98775    0.282(15)   4195.     0.2867    0.2867      888
   0.98830    0.275(15)   4292.     0.2867    0.2867      889
   0.98885    0.285(16)   4133.     0.2866    0.2866      890
   0.98940    0.285(16)   4126.     0.2865    0.2865      891
   0.98995    0.288(16)   4071.     0.2865    0.2865      892
   0.99050    0.288(16)   4053.     0.2864    0.2864      893
   0.99105    0.276(15)   4222.     0.2863    0.2863      894
   0.99160    0.275(15)   4230.     0.2863    0.2863      895
   0.99215    0.293(16)   3963.     0.2862    0.2862      896
   0.99270    0.281(16)   4114.     0.2861    0.2861      897
   0.99325    0.277(15)   4173.     0.2861    0.2861      898
   0.99380    0.288(16)   4004.     0.2860    0.2860      899
   0.99435    0.271(15)   4241.     0.2859    0.2859      900
   0.99490    0.289(16)   3968.     0.2858    0.2858      901
   0.99545    0.301(16)   3801.     0.2858    0.2858      902
   0.99600    0.292(16)   3909.     0.2857    0.2857      903
   0.99655    0.273(15)   4179.     0.2856    0.2856      904
   0.99710    0.287(16)   3969.     0.2856    0.2856      905
   0.99765    0.300(16)   3788.     0.2855    0.2855      906
   0.99820    0.279(16)   4058.     0.2854    0.2854      907
   0.99875    0.292(16)   3868.     0.2853    0.2853      908
   0.99930    0.286(16)   3946.     0.2853    0.2853      909
   0.99985    0.246(15)   4567.     0.2852    0.2852      910
   1.00040    0.291(16)   3863.     0.2851    0.2851      911
   1.00094    0.291(16)   3846.     0.2851    0.2851      912
   1.00149    0.269(16)   4146.     0.2850    0.2850      913
   1.00204    0.283(16)   3932.     0.2849    0.2849      914
   1.00259    0.308(17)   3617.     0.2848    0.2848      915
   1.00314    0.281(16)   3947.     0.2848    0.2848      916
   1.00369    0.275(16)   4032.     0.2847    0.2847      917
   1.00424    0.264(15)   4179.     0.2846    0.2846      918
   1.00479    0.278(16)   3970.     0.2845    0.2845      919
   1.00534    0.291(16)   3780.     0.2845    0.2845      920
   1.00589    0.291(16)   3775.     0.2844    0.2844      921
   1.00644    0.300(17)   3655.     0.2843    0.2843      922
   1.00699    0.299(17)   3649.     0.2843    0.2843      923
   1.00754    0.281(16)   3882.     0.2842    0.2842      924
   1.00809    0.314(17)   3458.     0.2841    0.2841      925
   1.00864    0.312(17)   3473.     0.2840    0.2884      926
   1.00919    0.279(16)   3881.     0.2840    0.2907      927
   1.00974    0.269(16)   4010.     0.2839    0.2942      928
   1.01029    0.329(17)   3272.     0.2838    0.2998      929
   1.01084    0.319(17)   3372.     0.2837    0.3083      930
   1.01139    0.322(17)   3328.     0.2837    0.3215      931
   1.01194    0.331(18)   3238.     0.2836    0.3419      932
   1.01249    0.344(18)   3101.     0.2835    0.3734      933
   1.01304    0.390(19)   2731.     0.2834    0.4216      934
   1.01359    0.430(20)   2475.     0.2834    0.4951      935
   1.01414    0.541(23)   1961.     0.2833    0.6044      936
   1.01469    0.707(26)   1499.     0.2832    0.7600      937
   1.01524    1.009(31)   1047.     0.2831    0.9655      938
   1.01579    1.31(4)     804.      0.283     1.208       939
   1.01634    1.58(4)     667.      0.283     1.452       940
   1.01689    1.75(4)     598.      0.283     1.645       941
   1.01744    1.82(4)     575.      0.283     1.744       942
   1.01799    1.80(4)     582.      0.283     1.733       943
   1.01853    1.70(4)     611.      0.283     1.631       944
   1.01908    1.49(4)     696.      0.283     1.475       945
   1.01963    1.35(4)     767.      0.283     1.305       946
   1.02018    1.157(33)   895.      0.2824    1.1444      947
   1.02073    1.047(32)   986.      0.2824    1.0033      948
   1.02128    0.898(30)   1147.     0.2823    0.8836      949
   1.02183    0.800(28)   1285.     0.2822    0.7833      950
   1.02238    0.684(26)   1500.     0.2821    0.6996      951
   1.02293    0.567(24)   1805.     0.2821    0.6299      952
   1.02348    0.542(23)   1884.     0.2820    0.5718      953
   1.02403    0.521(23)   1957.     0.2819    0.5233      954
   1.02458    0.436(21)   2335.     0.2818    0.4830      955
   1.02513    0.441(21)   2299.     0.2817    0.4493      956
   1.02568    0.439(21)   2304.     0.2817    0.4213      957
   1.02623    0.366(19)   2759.     0.2816    0.3979      958
   1.02678    0.347(19)   2904.     0.2815    0.3784      959
   1.02733    0.373(19)   2698.     0.2814    0.3622      960
   1.02788    0.317(18)   3168.     0.2813    0.3486      961
   1.02843    0.362(19)   2763.     0.2813    0.3373      962
   1.02898    0.338(18)   2954.     0.2812    0.3279      963
   1.02953    0.331(18)   3012.     0.2811    0.3200      964
   1.03008    0.327(18)   3045.     0.2810    0.3134      965
   1.03063    0.312(18)   3178.     0.2809    0.3080      966
   1.03118    0.310(18)   3195.     0.2809    0.3034      967
   1.03173    0.288(17)   3427.     0.2808    0.2995      968
   1.03228    0.302(18)   3263.     0.2807    0.2963      969
   1.03283    0.299(17)   3292.     0.2806    0.2936      970
   1.03338    0.318(18)   3089.     0.2805    0.2914      971
   1.03393    0.323(18)   3036.     0.2805    0.2895      972
   1.03448    0.273(17)   3578.     0.2804    0.2879      973
   1.03503    0.263(16)   3715.     0.2803    0.2866      974
   1.03558    0.273(17)   3559.     0.2802    0.2854      975
   1.03613    0.282(17)   3440.     0.2801    0.2856      976
   1.03667    0.286(17)   3388.     0.2801    0.2854      977
   1.03722    0.289(17)   3349.     0.2800    0.2856      978
   1.03777    0.283(17)   3407.     0.2799    0.2839      979
   1.03832    0.315(18)   3056.     0.2798    0.2858      980
   1.03887    0.311(18)   3084.     0.2797    0.2889      981
   1.03942    0.306(18)   3133.     0.2797    0.2936      982
   1.03997    0.297(18)   3218.     0.2796    0.3008      983
   1.04052    0.279(17)   3421.     0.2795    0.3119      984
   1.04107    0.323(18)   2951.     0.2794    0.3287      985
   1.04162    0.311(18)   3057.     0.2793    0.3544      986
   1.04217    0.381(20)   2487.     0.2793    0.3936      987
   1.04272    0.430(21)   2197.     0.2792    0.4533      988
   1.04327    0.623(26)   1514.     0.2791    0.5437      989
   1.04382    0.741(28)   1270.     0.2790    0.6748      990
   1.04437    0.880(31)   1067.     0.2789    0.8316      991
   1.04492    0.947(32)   989.      0.2788    0.9441      992
   1.04547    0.898(31)   1041.     0.2788    0.9471      993
   1.04602    0.892(31)   1046.     0.2787    0.8699      994
   1.04657    0.756(28)   1231.     0.2786    0.7766      995
   1.04712    0.707(28)   1314.     0.2785    0.6939      996
   1.04767    0.671(27)   1381.     0.2784    0.6247      997
   1.04822    0.609(26)   1520.     0.2783    0.5670      998
   1.04877    0.543(24)   1700.     0.2783    0.5188      999
   1.04932    0.445(22)   2068.     0.2782    0.4787     1000
   1.04987    0.426(22)   2159.     0.2781    0.4452     1001
   1.05042    0.420(21)   2183.     0.2780    0.4173     1002
   1.05097    0.415(21)   2202.     0.2779    0.3940     1003
   1.05152    0.403(21)   2264.     0.2778    0.3746     1004
   1.05207    0.408(21)   2230.     0.2778    0.3584     1005
   1.05262    0.382(20)   2380.     0.2777    0.3449     1006
   1.05317    0.347(20)   2611.     0.2776    0.3336     1007
   1.05372    0.401(21)   2255.     0.2775    0.3423     1008
   1.05427    0.338(19)   2673.     0.2774    0.3437     1009
   1.05482    0.405(21)   2223.     0.2773    0.3512     1010
   1.05537    0.399(21)   2251.     0.2773    0.3669     1011
   1.05591    0.423(22)   2123.     0.2772    0.3944     1012
   1.05646    0.501(24)   1788.     0.2771    0.4391     1013
   1.05701    0.561(25)   1592.     0.2770    0.5093     1014
   1.05756    0.628(27)   1418.     0.2769    0.6175     1015
   1.05811    0.782(30)   1137.     0.2768    0.7824     1016
   1.05866    0.950(33)   934.      0.2767    1.0305     1017
   1.05921    1.34(4)     659.      0.277     1.396      1018
   1.05976    1.97(5)     449.      0.277     1.913      1019
   1.06031    2.68(6)     328.7     0.276     2.597      1020
   1.06086    3.46(6)     254.2     0.276     3.415      1021
   1.06141    4.21(7)     208.6     0.276     4.264      1022
   1.06196    4.89(7)     178.9     0.276     4.981      1023
   1.06251    5.32(8)     164.1     0.276     5.407      1024
   1.06306    5.21(8)     167.3     0.276     5.462      1025
   1.06361    5.03(8)     173.0     0.276     5.180      1026
   1.06416    4.69(7)     185.1     0.276     4.678      1027
   1.06471    4.06(7)     213.5     0.276     4.087      1028
   1.06526    3.50(6)     246.9     0.276     3.506      1029
   1.06581    3.10(6)     278.1     0.276     2.986      1030
   1.06636    2.73(6)     315.6     0.276     2.539      1031
   1.06691    2.19(5)     391.      0.275     2.164      1032
   1.06746    1.91(5)     449.      0.275     1.850      1033
   1.06801    1.64(4)     521.      0.275     1.588      1034
   1.06856    1.39(4)     613.      0.275     1.369      1035
   1.06911    1.19(4)     714.      0.275     1.187      1036
   1.06966    1.06(4)     805.      0.275     1.036      1037
   1.07021    0.922(33)   919.      0.2750    0.9090     1038
   1.07076    0.789(31)   1072.     0.2749    0.8035     1039
   1.07131    0.736(30)   1146.     0.2748    0.7155     1040
   1.07186    0.681(28)   1237.     0.2747    0.6421     1041
   1.07241    0.568(26)   1479.     0.2746    0.5809     1042
   1.07296    0.591(27)   1419.     0.2745    0.5299     1043
   1.07351    0.500(24)   1673.     0.2744    0.4873     1044
   1.07406    0.452(23)   1847.     0.2744    0.4518     1045
   1.07461    0.468(24)   1778.     0.2743    0.4222     1046
   1.07516    0.444(23)   1871.     0.2742    0.3975     1047
   1.07571    0.420(22)   1975.     0.2741    0.3769     1048
   1.07625    0.384(22)   2152.     0.2740    0.3597     1049
   1.07680    0.350(21)   2358.     0.2739    0.3454     1050
   1.07735    0.385(22)   2140.     0.2738    0.3334     1051
   1.07790    0.361(21)   2275.     0.2737    0.3234     1052
   1.07845    0.349(21)   2352.     0.2737    0.3151     1053
   1.07900    0.371(21)   2203.     0.2736    0.3081     1054
   1.07955    0.347(21)   2356.     0.2735    0.3023     1055
   1.08010    0.334(20)   2441.     0.2734    0.2974     1056
   1.08065    0.328(20)   2476.     0.2733    0.2933     1057
   1.08120    0.311(20)   2612.     0.2732    0.2899     1058
   1.08175    0.284(19)   2849.     0.2731    0.2870     1059
   1.08230    0.342(21)   2364.     0.2731    0.2846     1060
   1.08285    0.334(20)   2415.     0.2730    0.2730     1061
   1.08340    0.306(20)   2629.     0.2729    0.2729     1062
   1.08395    0.333(20)   2412.     0.2728    0.2728     1063
   1.08450    0.311(20)   2575.     0.2727    0.2727     1064
   1.08505    0.330(20)   2418.     0.2726    0.2726     1065
   1.08560    0.316(20)   2523.     0.2725    0.2725     1066
   1.08615    0.315(20)   2522.     0.2724    0.2724     1067
   1.08670    0.307(20)   2583.     0.2724    0.2724     1068
   1.08725    0.305(20)   2593.     0.2723    0.2723     1069
   1.08780    0.340(21)   2323.     0.2722    0.2722     1070
   1.08835    0.316(20)   2498.     0.2721    0.2721     1071
   1.08890    0.297(19)   2647.     0.2720    0.2720     1072
   1.08945    0.297(19)   2647.     0.2719    0.2719     1073
   1.09000    0.327(20)   2399.     0.2718    0.2718     1074
   1.09055    0.286(19)   2729.     0.2718    0.2718     1075
   1.09110    0.329(21)   2369.     0.2717    0.2717     1076
   1.09165    0.285(19)   2730.     0.2716    0.2716     1077
   1.09220    0.272(19)   2860.     0.2715    0.2715     1078
   1.09275    0.281(19)   2756.     0.2714    0.2714     1079
   1.09330    0.279(19)   2770.     0.2713    0.2713     1080
   1.09385    0.315(20)   2451.     0.2712    0.2712     1081
   1.09440    0.300(20)   2568.     0.2711    0.2711     1082
   1.09495    0.285(19)   2697.     0.2711    0.2711     1083
   1.09550    0.312(20)   2460.     0.2710    0.2710     1084
   1.09605    0.301(20)   2546.     0.2709    0.2709     1085
   1.09660    0.310(20)   2460.     0.2708    0.2708     1086
   1.09714    0.282(19)   2700.     0.2707    0.2707     1087
   1.09769    0.268(19)   2833.     0.2706    0.2706     1088
   1.09824    0.218(17)   3488.     0.2705    0.2705     1089
   1.09879    0.324(21)   2339.     0.2704    0.2704     1090
   1.09934    0.256(18)   2956.     0.2704    0.2731     1091
   1.09989    0.272(19)   2771.     0.2703    0.2744     1092
   1.10044    0.298(20)   2525.     0.2702    0.2763     1093
   1.10099    0.265(19)   2830.     0.2701    0.2792     1094
   1.10154    0.274(19)   2735.     0.2700    0.2835     1095
   1.10209    0.256(18)   2923.     0.2699    0.2899     1096
   1.10264    0.266(19)   2808.     0.2698    0.2996     1097
   1.10319    0.289(20)   2575.     0.2698    0.3140     1098
   1.10374    0.349(22)   2128.     0.2697    0.3354     1099
   1.10429    0.277(19)   2677.     0.2696    0.3673     1100
   1.10484    0.364(22)   2031.     0.2695    0.4148     1101
   1.10539    0.415(24)   1778.     0.2694    0.4855     1102
   1.10594    0.577(28)   1275.     0.2693    0.5905     1103
   1.10649    0.882(35)   832.      0.2692    0.7461     1104
   1.10704    1.06(4)     693.      0.269     0.969      1105
   1.10759    1.29(4)     568.      0.269     1.247      1106
   1.10814    1.42(4)     512.      0.269     1.482      1107
   1.10869    1.54(5)     472.      0.269     1.545      1108
   1.10924    1.46(4)     496.      0.269     1.437      1109
   1.10979    1.28(4)     565.      0.269     1.265      1110
   1.11034    1.11(4)     650.      0.269     1.102      1111
   1.11089    0.97(4)     747.      0.269     0.964      1112
   1.11144    0.89(4)     812.      0.268     0.849      1113
   1.11199    0.743(32)   967.      0.2684    0.7522     1114
   1.11254    0.671(31)   1069.     0.2683    0.6719     1115
   1.11309    0.595(29)   1202.     0.2682    0.6049     1116
   1.11364    0.531(27)   1346.     0.2681    0.5489     1117
   1.11419    0.457(25)   1558.     0.2680    0.5023     1118
   1.11474    0.412(24)   1726.     0.2679    0.4633     1119
   1.11529    0.385(23)   1844.     0.2678    0.4308     1120
   1.11584    0.376(23)   1885.     0.2678    0.4037     1121
   1.11639    0.352(22)   2005.     0.2677    0.3811     1122
   1.11694    0.362(23)   1949.     0.2676    0.3622     1123
   1.11749    0.318(21)   2209.     0.2675    0.3464     1124
   1.11804    0.339(22)   2070.     0.2674    0.3332     1125
   1.11859    0.343(22)   2044.     0.2673    0.3222     1126
   1.11914    0.290(20)   2407.     0.2672    0.3130     1127
   1.11969    0.327(22)   2134.     0.2672    0.3054     1128
   1.12023    0.302(21)   2307.     0.2671    0.2989     1129
   1.12078    0.275(20)   2525.     0.2670    0.2936     1130
   1.12133    0.286(20)   2425.     0.2669    0.2891     1131
   1.12188    0.286(20)   2415.     0.2668    0.2853     1132
   1.12243    0.304(21)   2267.     0.2667    0.2822     1133
   1.12298    0.280(20)   2456.     0.2666    0.2795     1134
   1.12353    0.261(19)   2637.     0.2666    0.2773     1135
   1.12408    0.276(20)   2487.     0.2665    0.2754     1136
   1.12463    0.291(21)   2352.     0.2664    0.2739     1137
   1.12518    0.302(21)   2262.     0.2663    0.2725     1138
   1.12573    0.258(19)   2636.     0.2662    0.2714     1139
   1.12628    0.287(21)   2369.     0.2661    0.2705     1140
   1.12683    0.251(19)   2706.     0.2661    0.2697     1141
   1.12738    0.264(20)   2559.     0.2660    0.2690     1142
   1.12793    0.256(19)   2637.     0.2659    0.2684     1143
   1.12848    0.280(20)   2403.     0.2658    0.2658     1144
   1.12903    0.242(19)   2774.     0.2657    0.2657     1145
   1.12958    0.282(20)   2382.     0.2656    0.2656     1146
   1.13013    0.272(20)   2464.     0.2655    0.2655     1147
   1.13068    0.269(20)   2480.     0.2655    0.2655     1148
   1.13123    0.231(19)   2887.     0.2654    0.2654     1149
   1.13178    0.263(20)   2529.     0.2653    0.2653     1150
   1.13233    0.233(19)   2843.     0.2652    0.2652     1151
   1.13288    0.260(20)   2551.     0.2651    0.2651     1152
   1.13343    0.272(20)   2428.     0.2650    0.2650     1153
   1.13398    0.249(19)   2653.     0.2650    0.2650     1154
   1.13453    0.296(21)   2222.     0.2649    0.2649     1155
   1.13508    0.262(20)   2508.     0.2648    0.2648     1156
   1.13563    0.284(21)   2309.     0.2647    0.2647     1157
   1.13618    0.237(19)   2759.     0.2646    0.2646     1158
   1.13673    0.241(19)   2713.     0.2645    0.2645     1159
   1.13728    0.241(19)   2701.     0.2644    0.2644     1160
   1.13783    0.265(20)   2455.     0.2644    0.2644     1161
   1.13838    0.267(20)   2430.     0.2643    0.2643     1162
   1.13893    0.263(20)   2463.     0.2642    0.2642     1163
   1.13948    0.285(21)   2266.     0.2641    0.2641     1164
   1.14003    0.250(20)   2578.     0.2640    0.2640     1165
   1.14058    0.264(20)   2431.     0.2639    0.2639     1166
   1.14113    0.276(21)   2325.     0.2639    0.2639     1167
   1.14168    0.231(19)   2769.     0.2638    0.2638     1168
   1.14223    0.294(21)   2171.     0.2637    0.2637     1169
   1.14278    0.246(20)   2588.     0.2636    0.2636     1170
   1.14333    0.275(21)   2312.     0.2635    0.2635     1171
   1.14388    0.258(20)   2456.     0.2635    0.2635     1172
   1.14443    0.256(20)   2476.     0.2634    0.2634     1173
   1.14497    0.267(21)   2363.     0.2633    0.2633     1174
   1.14552    0.270(21)   2340.     0.2632    0.2632     1175
   1.14607    0.240(20)   2623.     0.2631    0.2631     1176
   1.14662    0.291(22)   2155.     0.2630    0.2630     1177
   1.14717    0.271(21)   2310.     0.2630    0.2630     1178
   1.14772    0.273(21)   2286.     0.2629    0.2629     1179
   1.14827    0.264(21)   2360.     0.2628    0.2628     1180
   1.14882    0.238(20)   2619.     0.2627    0.2627     1181
   1.14937    0.243(20)   2556.     0.2626    0.2626     1182
   1.14992    0.239(20)   2597.     0.2626    0.2626     1183
   1.15047    0.252(20)   2453.     0.2625    0.2625     1184
   1.15102    0.248(20)   2491.     0.2624    0.2624     1185
   1.15157    0.269(21)   2286.     0.2623    0.2623     1186
   1.15212    0.259(21)   2376.     0.2622    0.2622     1187
   1.15267    0.253(20)   2427.     0.2621    0.2621     1188
   1.15322    0.242(20)   2531.     0.2621    0.2621     1189
   1.15377    0.291(22)   2096.     0.2620    0.2620     1190
   1.15432    0.238(20)   2562.     0.2619    0.2619     1191
   1.15487    0.243(20)   2499.     0.2618    0.2618     1192
   1.15542    0.247(20)   2455.     0.2617    0.2617     1193
   1.15597    0.281(22)   2157.     0.2617    0.2617     1194
   1.15652    0.265(21)   2282.     0.2616    0.2616     1195
   1.15707    0.299(22)   2020.     0.2615    0.2615     1196
   1.15762    0.269(21)   2235.     0.2614    0.2614     1197
   1.15817    0.305(23)   1970.     0.2613    0.2613     1198
   1.15872    0.264(21)   2272.     0.2613    0.2613     1199
   1.15927    0.246(20)   2432.     0.2612    0.2612     1200
   1.15982    0.273(21)   2184.     0.2611    0.2611     1201
   1.16037    0.277(22)   2148.     0.2610    0.2610     1202
   1.16092    0.281(22)   2113.     0.2609    0.2609     1203
   1.16147    0.253(21)   2343.     0.2609    0.2609     1204
   1.16202    0.243(20)   2430.     0.2608    0.2608     1205
   1.16257    0.237(20)   2489.     0.2607    0.2607     1206
   1.16312    0.284(22)   2078.     0.2606    0.2606     1207
   1.16367    0.281(22)   2094.     0.2606    0.2606     1208
   1.16422    0.251(21)   2340.     0.2605    0.2605     1209
   1.16477    0.260(21)   2254.     0.2604    0.2604     1210
   1.16532    0.294(22)   1983.     0.2603    0.2603     1211
   1.16587    0.257(21)   2264.     0.2602    0.2602     1212
   1.16642    0.236(20)   2469.     0.2602    0.2602     1213
   1.16697    0.279(22)   2079.     0.2601    0.2601     1214
   1.16752    0.261(21)   2221.     0.2600    0.2600     1215
   1.16807    0.237(20)   2437.     0.2599    0.2599     1216
   1.16862    0.271(22)   2131.     0.2599    0.2599     1217
   1.16917    0.262(21)   2193.     0.2598    0.2598     1218
   1.16972    0.242(21)   2372.     0.2597    0.2597     1219
   1.17027    0.243(21)   2362.     0.2596    0.2596     1220
   1.17082    0.206(19)   2770.     0.2595    0.2595     1221
   1.17137    0.263(21)   2170.     0.2595    0.2595     1222
   1.17191    0.253(21)   2251.     0.2594    0.2594     1223
   1.17246    0.253(21)   2241.     0.2593    0.2593     1224
   1.17301    0.235(20)   2416.     0.2592    0.2592     1225
   1.17356    0.292(23)   1940.     0.2592    0.2592     1226
   1.17411    0.255(21)   2213.     0.2591    0.2591     1227
   1.17466    0.233(20)   2422.     0.2590    0.2590     1228
   1.17521    0.246(21)   2290.     0.2589    0.2589     1229
   1.17576    0.264(22)   2126.     0.2589    0.2589     1230
   1.17631    0.250(21)   2238.     0.2588    0.2588     1231
   1.17686    0.245(21)   2277.     0.2587    0.2587     1232
   1.17741    0.219(20)   2546.     0.2586    0.2586     1233
   1.17796    0.216(20)   2578.     0.2586    0.2586     1234
   1.17851    0.263(22)   2110.     0.2585    0.2585     1235
   1.17906    0.256(22)   2160.     0.2584    0.2584     1236
   1.17961    0.264(22)   2092.     0.2583    0.2583     1237
   1.18016    0.250(21)   2204.     0.2583    0.2583     1238
   1.18071    0.274(22)   2005.     0.2582    0.2582     1239
   1.18126    0.235(21)   2337.     0.2581    0.2581     1240
   1.18181    0.248(21)   2208.     0.2580    0.2580     1241
   1.18236    0.249(21)   2198.     0.2580    0.2580     1242
   1.18291    0.282(23)   1933.     0.2579    0.2579     1243
   1.18346    0.219(20)   2491.     0.2578    0.2578     1244
   1.18401    0.258(22)   2108.     0.2577    0.2577     1245
   1.18456    0.271(22)   2000.     0.2577    0.2577     1246
   1.18511    0.207(20)   2613.     0.2576    0.2576     1247
   1.18566    0.230(21)   2350.     0.2575    0.2575     1248
   1.18621    0.304(24)   1770.     0.2575    0.2575     1249
   1.18676    0.231(21)   2330.     0.2574    0.2574     1250
   1.18731    0.192(19)   2794.     0.2573    0.2573     1251
   1.18786    0.247(21)   2171.     0.2572    0.2572     1252
   1.18841    0.275(23)   1941.     0.2572    0.2572     1253
   1.18896    0.242(21)   2202.     0.2571    0.2571     1254
   1.18951    0.231(21)   2300.     0.2570    0.2570     1255
   1.19006    0.211(20)   2515.     0.2569    0.2570     1256
   1.19061    0.270(23)   1962.     0.2569    0.2569     1257
   1.19116    0.254(22)   2085.     0.2568    0.2568     1258
   1.19171    0.250(22)   2107.     0.2567    0.2567     1259
   1.19226    0.228(21)   2308.     0.2567    0.2567     1260
   1.19281    0.228(21)   2298.     0.2566    0.2566     1261
   1.19336    0.267(23)   1962.     0.2565    0.2565     1262
   1.19391    0.224(21)   2337.     0.2565    0.2565     1263
   1.19446    0.217(20)   2410.     0.2564    0.2564     1264
   1.19501    0.259(22)   2009.     0.2563    0.2563     1265
   1.19556    0.262(22)   1985.     0.2562    0.2562     1266
   1.19611    0.272(23)   1907.     0.2562    0.2562     1267
   1.19666    0.265(23)   1954.     0.2561    0.2561     1268
   1.19721    0.240(22)   2150.     0.2560    0.2560     1269
   1.19776    0.233(21)   2212.     0.2560    0.2560     1270
   1.19831    0.263(23)   1958.     0.2559    0.2559     1271
   1.19886    0.230(21)   2231.     0.2558    0.2558     1272
   1.19941    0.232(21)   2203.     0.2558    0.2558     1273
   1.19996    0.247(22)   2071.     0.2557    0.2557     1274
   1.20051    0.235(21)   2166.     0.2556    0.2556     1275
   1.20106    0.252(22)   2022.     0.2556    0.2556     1276
   1.20160    0.264(23)   1923.     0.2555    0.2555     1277
   1.20215    0.219(21)   2312.     0.2554    0.2554     1278
   1.20270    0.267(23)   1893.     0.2554    0.2554     1279
   1.20325    0.214(21)   2356.     0.2553    0.2553     1280
   1.20380    0.286(24)   1760.     0.2552    0.2552     1281
   1.20435    0.231(21)   2175.     0.2551    0.2551     1282
   1.20490    0.267(23)   1875.     0.2551    0.2551     1283
   1.20545    0.262(23)   1910.     0.2550    0.2550     1284
   1.20600    0.242(22)   2059.     0.2549    0.2549     1285
   1.20655    0.279(24)   1785.     0.2549    0.2549     1286
   1.20710    0.201(20)   2470.     0.2548    0.2548     1287
   1.20765    0.226(21)   2196.     0.2547    0.2548     1288
   1.20820    0.202(20)   2449.     0.2547    0.2547     1289
   1.20875    0.249(22)   1983.     0.2546    0.2546     1290
   1.20930    0.241(22)   2041.     0.2546    0.2546     1291
   1.20985    0.275(24)   1791.     0.2545    0.2545     1292
   1.21040    0.226(21)   2169.     0.2544    0.2544     1293
   1.21095    0.278(24)   1763.     0.2544    0.2544     1294
   1.21150    0.246(22)   1990.     0.2543    0.2543     1295
   1.21205    0.258(23)   1887.     0.2542    0.2542     1296
   1.21260    0.257(23)   1894.     0.2542    0.2542     1297
   1.21315    0.235(22)   2068.     0.2541    0.2541     1298
   1.21370    0.301(25)   1608.     0.2540    0.2540     1299
   1.21425    0.225(22)   2145.     0.2540    0.2540     1300
   1.21480    0.282(24)   1712.     0.2539    0.2539     1301
   1.21535    0.237(22)   2033.     0.2538    0.2538     1302
   1.21590    0.287(24)   1673.     0.2538    0.2538     1303
   1.21645    0.244(23)   1965.     0.2537    0.2537     1304
   1.21700    0.278(24)   1721.     0.2537    0.2537     1305
   1.21755    0.264(24)   1809.     0.2536    0.2536     1306
   1.21810    0.233(22)   2045.     0.2535    0.2535     1307
   1.21865    0.238(22)   2000.     0.2535    0.2535     1308
   1.21920    0.226(22)   2103.     0.2534    0.2534     1309
   1.21975    0.268(24)   1765.     0.2533    0.2533     1310
   1.22030    0.279(24)   1691.     0.2533    0.2533     1311
   1.22085    0.252(23)   1867.     0.2532    0.2532     1312
   1.22140    0.238(22)   1976.     0.2532    0.2532     1313
   1.22195    0.275(24)   1708.     0.2531    0.2531     1314
   1.22250    0.284(25)   1650.     0.2530    0.2530     1315
   1.22305    0.291(25)   1607.     0.2530    0.2530     1316
   1.22360    0.274(24)   1700.     0.2529    0.2529     1317
   1.22415    0.279(24)   1667.     0.2529    0.2529     1318
   1.22470    0.235(22)   1979.     0.2528    0.2528     1319
   1.22525    0.227(22)   2046.     0.2527    0.2527     1320
   1.22580    0.244(23)   1893.     0.2527    0.2527     1321
   1.22635    0.288(25)   1602.     0.2526    0.2526     1322
   1.22690    0.291(25)   1583.     0.2526    0.2526     1323
   1.22745    0.276(25)   1663.     0.2525    0.2525     1324
   1.22800    0.303(26)   1513.     0.2524    0.2524     1325
   1.22855    0.260(24)   1760.     0.2524    0.2524     1326
   1.22910    0.263(24)   1738.     0.2523    0.2523     1327
   1.22965    0.250(23)   1822.     0.2523    0.2523     1328
   1.23020    0.306(26)   1488.     0.2522    0.2522     1329
   1.23075    0.271(24)   1674.     0.2521    0.2521     1330
   1.23130    0.254(24)   1783.     0.2521    0.2521     1331
   1.23185    0.290(25)   1559.     0.2520    0.2520     1332
   1.23240    0.286(25)   1576.     0.2520    0.2520     1333
   1.23295    0.316(26)   1426.     0.2519    0.2519     1334
   1.23350    0.269(24)   1666.     0.2519    0.2519     1335
   1.23405    0.286(25)   1569.     0.2518    0.2578     1336
   1.23460    0.311(26)   1438.     0.2517    0.2603     1337
   1.23515    0.345(28)   1293.     0.2517    0.2639     1338
   1.23569    0.319(27)   1396.     0.2516    0.2690     1339
   1.23624    0.335(27)   1325.     0.2516    0.2763     1340
   1.23679    0.300(26)   1478.     0.2515    0.2915     1341
   1.23734    0.323(27)   1369.     0.2515    0.3083     1342
   1.23789    0.403(30)   1095.     0.2514    0.3323     1343
   1.23844    0.413(31)   1067.     0.2513    0.3665     1344
   1.23899    0.382(29)   1151.     0.2513    0.4151     1345
   1.23954    0.444(32)   987.      0.2512    0.4844     1346
   1.24009    0.57(4)     773.      0.251     0.583      1347
   1.24064    0.60(4)     734.      0.251     0.723      1348
   1.24119    0.87(4)     501.      0.251     0.921      1349
   1.24174    1.03(5)     422.      0.251     1.199      1350
   1.24229    1.49(6)     290.8     0.251     1.583      1351
   1.24284    2.00(7)     216.7     0.251     2.097      1352
   1.24339    2.89(8)     149.5     0.251     2.754      1353
   1.24394    3.90(10)    110.7     0.251     3.538      1354
   1.24449    4.49(10)    96.0      0.251     4.388      1355
   1.24504    5.34(11)    80.4      0.251     5.176      1356
   1.24559    5.67(11)    75.7      0.251     5.723      1357
   1.24614    5.75(12)    74.4      0.251     5.893      1358
   1.24669    5.52(11)    77.3      0.251     5.694      1359
   1.24724    5.08(11)    83.8      0.250     5.244      1360
   1.24779    4.51(10)    94.3      0.250     4.668      1361
   1.24834    4.13(10)    102.8     0.250     4.061      1362
   1.24889    3.51(9)     120.5     0.250     3.485      1363
   1.24944    2.90(8)     145.6     0.250     2.971      1364
   1.24999    2.48(8)     169.9     0.250     2.529      1365
   1.25054    2.09(7)     201.7     0.250     2.155      1366
   1.25109    1.88(7)     223.3     0.250     1.841      1367
   1.25164    1.55(6)     270.7     0.250     1.578      1368
   1.25219    1.46(6)     285.5     0.250     1.359      1369
   1.25274    1.16(5)     359.      0.250     1.176      1370
   1.25329    0.98(5)     425.      0.250     1.023      1371
   1.25384    0.87(5)     478.      0.250     0.896      1372
   1.25439    0.83(4)     498.      0.250     0.789      1373
   1.25494    0.68(4)     609.      0.250     0.700      1374
   1.25549    0.62(4)     668.      0.250     0.626      1375
   1.25604    0.57(4)     728.      0.250     0.564      1376
   1.25659    0.53(4)     782.      0.250     0.512      1377
   1.25714    0.50(4)     813.      0.250     0.469      1378
   1.25769    0.379(30)   1081.     0.2495    0.4324     1379
   1.25824    0.433(33)   942.      0.2495    0.4022     1380
   1.25879    0.447(33)   913.      0.2494    0.3769     1381
   1.25934    0.416(32)   979.      0.2494    0.3558     1382
   1.25989    0.360(30)   1128.     0.2493    0.3382     1383
   1.26044    0.346(29)   1172.     0.2493    0.3235     1384
   1.26099    0.369(30)   1096.     0.2492    0.3112     1385
   1.26154    0.350(29)   1153.     0.2492    0.3010     1386
   1.26209    0.321(28)   1255.     0.2491    0.2924     1387
   1.26264    0.319(28)   1260.     0.2491    0.2852     1388
   1.26319    0.282(27)   1421.     0.2490    0.2792     1389
   1.26374    0.263(26)   1523.     0.2490    0.2742     1390
   1.26429    0.293(27)   1361.     0.2489    0.2700     1391
   1.26484    0.244(25)   1635.     0.2489    0.2665     1392
   1.26539    0.322(28)   1234.     0.2489    0.2635     1393
   1.26594    0.330(29)   1200.     0.2488    0.2488     1394
   1.26649    0.318(28)   1243.     0.2488    0.2488     1395
   1.26704    0.271(26)   1457.     0.2487    0.2487     1396
   1.26759    0.282(27)   1399.     0.2487    0.2487     1397
   1.26814    0.252(25)   1562.     0.2486    0.2486     1398
   1.26869    0.293(27)   1339.     0.2486    0.2486     1399
   1.26924    0.335(29)   1171.     0.2485    0.2485     1400
   1.26979    0.287(27)   1363.     0.2485    0.2485     1401
   1.27034    0.259(26)   1506.     0.2484    0.2484     1402
   1.27089    0.270(26)   1442.     0.2484    0.2484     1403
   1.27144    0.224(24)   1733.     0.2484    0.2484     1404
   1.27199    0.255(26)   1517.     0.2483    0.2483     1405
   1.27254    0.222(24)   1739.     0.2483    0.2483     1406
   1.27309    0.267(26)   1446.     0.2482    0.2482     1407
   1.27364    0.309(28)   1246.     0.2482    0.2482     1408
   1.27419    0.276(27)   1393.     0.2481    0.2481     1409
   1.27474    0.282(27)   1361.     0.2481    0.2481     1410
   1.27529    0.240(25)   1592.     0.2481    0.2481     1411
   1.27584    0.251(26)   1519.     0.2480    0.2480     1412
   1.27639    0.268(27)   1424.     0.2480    0.2480     1413
   1.27693    0.250(26)   1522.     0.2479    0.2479     1414
   1.27748    0.253(26)   1500.     0.2479    0.2479     1415
   1.27803    0.304(28)   1247.     0.2478    0.2479     1416
   1.27858    0.228(25)   1660.     0.2478    0.2478     1417
   1.27913    0.233(25)   1616.     0.2478    0.2478     1418
   1.27968    0.221(24)   1706.     0.2477    0.2477     1419
   1.28023    0.245(26)   1533.     0.2477    0.2477     1420
   1.28078    0.200(23)   1872.     0.2476    0.2476     1421
   1.28133    0.217(24)   1726.     0.2476    0.2476     1422
   1.28188    0.289(28)   1289.     0.2476    0.2476     1423
   1.28243    0.255(26)   1460.     0.2475    0.2475     1424
   1.28298    0.223(25)   1664.     0.2475    0.2475     1425
   1.28353    0.237(25)   1563.     0.2474    0.2474     1426
   1.28408    0.257(26)   1441.     0.2474    0.2474     1427
   1.28463    0.260(27)   1420.     0.2474    0.2474     1428
   1.28518    0.252(26)   1460.     0.2473    0.2473     1429
   1.28573    0.269(27)   1366.     0.2473    0.2473     1430
   1.28628    0.264(27)   1388.     0.2473    0.2473     1431
   1.28683    0.259(27)   1412.     0.2472    0.2472     1432
   1.28738    0.249(26)   1467.     0.2472    0.2472     1433
   1.28793    0.261(27)   1400.     0.2471    0.2471     1434
   1.28848    0.316(29)   1152.     0.2471    0.2471     1435
   1.28903    0.295(28)   1232.     0.2471    0.2471     1436
   1.28958    0.320(30)   1132.     0.2470    0.2470     1437
   1.29013    0.271(27)   1334.     0.2470    0.2470     1438
   1.29068    0.233(25)   1550.     0.2469    0.2469     1439
   1.29123    0.242(26)   1491.     0.2469    0.2469     1440
   1.29178    0.242(26)   1484.     0.2469    0.2469     1441
   1.29233    0.240(26)   1495.     0.2468    0.2468     1442
   1.29288    0.265(27)   1348.     0.2468    0.2468     1443
   1.29343    0.244(26)   1466.     0.2468    0.2468     1444
   1.29398    0.244(26)   1460.     0.2467    0.2467     1445
   1.29453    0.236(26)   1506.     0.2467    0.2467     1446
   1.29508    0.248(26)   1431.     0.2467    0.2467     1447
   1.29563    0.274(28)   1293.     0.2466    0.2466     1448
   1.29618    0.291(29)   1213.     0.2466    0.2466     1449
   1.29673    0.284(28)   1244.     0.2466    0.2466     1450
   1.29728    0.284(28)   1238.     0.2465    0.2465     1451
   1.29783    0.245(26)   1434.     0.2465    0.2465     1452
   1.29838    0.325(30)   1077.     0.2464    0.2464     1453
   1.29893    0.223(25)   1568.     0.2464    0.2464     1454
   1.29948    0.235(26)   1485.     0.2464    0.2464     1455
   1.30003    0.215(25)   1617.     0.2463    0.2463     1456
   1.30058    0.259(27)   1342.     0.2463    0.2463     1457
   1.30113    0.294(29)   1179.     0.2463    0.2463     1458
   1.30168    0.243(26)   1425.     0.2462    0.2462     1459
   1.30223    0.214(25)   1611.     0.2462    0.2462     1460
   1.30278    0.212(25)   1626.     0.2462    0.2462     1461
   1.30333    0.218(25)   1576.     0.2461    0.2461     1462
   1.30388    0.253(27)   1353.     0.2461    0.2461     1463
   1.30443    0.225(26)   1523.     0.2461    0.2461     1464
   1.30498    0.263(28)   1297.     0.2461    0.2461     1465
   1.30553    0.258(28)   1321.     0.2460    0.2460     1466
   1.30608    0.267(28)   1272.     0.2460    0.2460     1467
   1.30663    0.300(30)   1130.     0.2460    0.2460     1468
   1.30718    0.251(27)   1350.     0.2459    0.2459     1469
   1.30773    0.275(29)   1229.     0.2459    0.2459     1470
   1.30828    0.246(27)   1371.     0.2459    0.2459     1471
   1.30883    0.249(27)   1349.     0.2458    0.2458     1472
   1.30938    0.220(26)   1525.     0.2458    0.2458     1473
   1.30993    0.238(27)   1405.     0.2458    0.2458     1474
   1.31048    0.233(26)   1435.     0.2457    0.2457     1475
   1.31103    0.239(27)   1393.     0.2457    0.2457     1476
   1.31158    0.201(25)   1657.     0.2457    0.2457     1477
   1.31213    0.249(27)   1331.     0.2457    0.2457     1478
   1.31268    0.244(27)   1359.     0.2456    0.2456     1479
   1.31323    0.211(25)   1566.     0.2456    0.2456     1480
   1.31378    0.215(26)   1537.     0.2456    0.2456     1481
   1.31433    0.218(26)   1510.     0.2455    0.2455     1482
   1.31488    0.219(26)   1503.     0.2455    0.2455     1483
   1.31543    0.228(26)   1437.     0.2455    0.2455     1484
   1.31598    0.198(25)   1651.     0.2454    0.2454     1485
   1.31653    0.168(23)   1944.     0.2454    0.2454     1486
   1.31708    0.217(26)   1499.     0.2454    0.2454     1487
   1.31763    0.258(28)   1261.     0.2454    0.2454     1488
   1.31818    0.237(27)   1370.     0.2453    0.2453     1489
   1.31873    0.274(29)   1180.     0.2453    0.2453     1490
   1.31928    0.222(26)   1453.     0.2453    0.2453     1491
   1.31983    0.278(29)   1157.     0.2453    0.2453     1492
   1.32038    0.304(31)   1058.     0.2452    0.2452     1493
   1.32093    0.270(29)   1187.     0.2452    0.2452     1494
   1.32148    0.262(29)   1225.     0.2452    0.2452     1495
   1.32203    0.299(31)   1067.     0.2451    0.2451     1496
   1.32258    0.269(29)   1186.     0.2451    0.2451     1497
   1.32313    0.291(30)   1092.     0.2451    0.2451     1498
   1.32368    0.283(30)   1124.     0.2451    0.2451     1499
   1.32423    0.267(29)   1185.     0.2450    0.2450     1500
   1.32478    0.296(31)   1067.     0.2450    0.2450     1501
   1.32533    0.240(28)   1315.     0.2450    0.2450     1502
   1.32588    0.237(27)   1327.     0.2450    0.2450     1503
   1.32643    0.238(28)   1321.     0.2449    0.2449     1504
   1.32698    0.264(29)   1188.     0.2449    0.2449     1505
   1.32753    0.309(31)   1012.     0.2449    0.2449     1506
   1.32808    0.258(29)   1208.     0.2449    0.2449     1507
   1.32863    0.265(29)   1173.     0.2448    0.2448     1508
   1.32918    0.292(31)   1065.     0.2448    0.2448     1509
   1.32973    0.234(27)   1324.     0.2448    0.2448     1510
   1.33028    0.232(27)   1337.     0.2448    0.2448     1511
   1.33083    0.258(29)   1197.     0.2448    0.2448     1512
   1.33138    0.229(27)   1344.     0.2447    0.2447     1513
   1.33193    0.220(27)   1398.     0.2447    0.2447     1514
   1.33248    0.240(28)   1279.     0.2447    0.2447     1515
   1.33302    0.192(25)   1598.     0.2447    0.2447     1516
   1.33357    0.283(30)   1078.     0.2446    0.2446     1517
   1.33412    0.251(29)   1213.     0.2446    0.2446     1518
   1.33467    0.268(30)   1134.     0.2446    0.2446     1519
   1.33522    0.272(30)   1116.     0.2446    0.2446     1520
   1.33577    0.233(28)   1300.     0.2446    0.2446     1521
   1.33632    0.214(27)   1414.     0.2445    0.2445     1522
   1.33687    0.228(27)   1327.     0.2445    0.2445     1523
   1.33742    0.221(27)   1361.     0.2445    0.2445     1524
   1.33797    0.252(29)   1194.     0.2445    0.2445     1525
   1.33852    0.272(30)   1101.     0.2444    0.2444     1526
   1.33907    0.269(30)   1110.     0.2444    0.2444     1527
   1.33962    0.297(32)   1006.     0.2444    0.2444     1528
   1.34017    0.210(27)   1418.     0.2444    0.2444     1529
   1.34072    0.278(31)   1070.     0.2444    0.2444     1530
   1.34127    0.218(27)   1362.     0.2443    0.2443     1531
   1.34182    0.205(26)   1446.     0.2443    0.2443     1532
   1.34237    0.219(27)   1351.     0.2443    0.2443     1533
   1.34292    0.246(29)   1197.     0.2443    0.2443     1534
   1.34347    0.213(27)   1383.     0.2443    0.2443     1535
   1.34402    0.288(31)   1019.     0.2442    0.2442     1536
   1.34457    0.312(33)   937.      0.2442    0.2442     1537
   1.34512    0.275(31)   1060.     0.2442    0.2442     1538
   1.34567    0.262(30)   1111.     0.2442    0.2452     1539
   1.34622    0.270(30)   1078.     0.2442    0.2455     1540
   1.34677    0.243(29)   1196.     0.2442    0.2460     1541
   1.34732    0.230(28)   1262.     0.2441    0.2467     1542
   1.34787    0.230(28)   1257.     0.2441    0.2476     1543
   1.34842    0.255(30)   1133.     0.2441    0.2490     1544
   1.34897    0.228(28)   1266.     0.2441    0.2508     1545
   1.34952    0.259(30)   1108.     0.2441    0.2534     1546
   1.35007    0.267(31)   1075.     0.2440    0.2569     1547
   1.35062    0.278(31)   1030.     0.2440    0.2618     1548
   1.35117    0.323(34)   881.      0.2440    0.2686     1549
   1.35172    0.258(30)   1105.     0.2440    0.2780     1550
   1.35227    0.272(31)   1043.     0.2440    0.2910     1551
   1.35282    0.283(32)   1000.     0.2440    0.3089     1552
   1.35337    0.259(30)   1091.     0.2439    0.3338     1553
   1.35392    0.330(34)   853.      0.2439    0.3681     1554
   1.35447    0.43(4)     648.      0.244     0.416      1555
   1.35502    0.50(4)     561.      0.244     0.481      1556
   1.35557    0.63(5)     441.      0.244     0.570      1557
   1.35612    0.78(5)     355.      0.244     0.684      1558
   1.35667    0.84(6)     327.8     0.244     0.808      1559
   1.35722    0.96(6)     285.3     0.244     0.900      1560
   1.35777    0.88(6)     311.4     0.244     0.922      1561
   1.35832    0.90(6)     301.2     0.244     0.873      1562
   1.35887    0.86(6)     318.0     0.244     0.789      1563
   1.35942    0.74(5)     367.      0.244     0.704      1564
   1.35997    0.65(5)     419.      0.244     0.628      1565
   1.36052    0.53(4)     519.      0.244     0.565      1566
   1.36107    0.56(5)     490.      0.244     0.512      1567
   1.36162    0.50(4)     549.      0.244     0.468      1568
   1.36217    0.45(4)     600.      0.244     0.431      1569
   1.36272    0.36(4)     757.      0.244     0.400      1570
   1.36327    0.36(4)     747.      0.244     0.375      1571
   1.36382    0.34(4)     809.      0.244     0.353      1572
   1.36437    0.318(34)   852.      0.2437    0.3350     1573
   1.36492    0.278(32)   973.      0.2436    0.3200     1574
   1.36547    0.293(33)   920.      0.2436    0.3074     1575
   1.36602    0.257(31)   1049.     0.2436    0.2969     1576
   1.36657    0.243(30)   1108.     0.2436    0.2881     1577
   1.36712    0.207(28)   1303.     0.2436    0.2808     1578
   1.36767    0.248(30)   1083.     0.2436    0.2747     1579
   1.36822    0.207(28)   1292.     0.2436    0.2695     1580
   1.36877    0.282(33)   945.      0.2436    0.2652     1581
   1.36932    0.320(35)   831.      0.2436    0.2617     1582
   1.36987    0.291(33)   913.      0.2435    0.2587     1583
   1.37042    0.231(30)   1147.     0.2435    0.2562     1584
   1.37097    0.258(31)   1025.     0.2435    0.2541     1585
   1.37152    0.274(32)   965.      0.2435    0.2523     1586
   1.37207    0.207(28)   1278.     0.2435    0.2509     1587
   1.37262    0.237(30)   1110.     0.2435    0.2497     1588
   1.37317    0.241(30)   1088.     0.2435    0.2486     1589
   1.37372    0.193(27)   1363.     0.2435    0.2478     1590
   1.37427    0.303(34)   861.      0.2435    0.2471     1591
   1.37482    0.303(34)   858.      0.2434    0.2465     1592
   1.37537    0.201(28)   1295.     0.2434    0.2459     1593
   1.37592    0.247(31)   1049.     0.2434    0.2455     1594
   1.37647    0.240(30)   1079.     0.2434    0.2452     1595
   1.37702    0.222(29)   1168.     0.2434    0.2449     1596
   1.37757    0.184(27)   1408.     0.2434    0.2434     1597
   1.37812    0.215(29)   1200.     0.2434    0.2434     1598
   1.37867    0.246(31)   1044.     0.2434    0.2434     1599
   1.37922    0.216(29)   1190.     0.2434    0.2434     1600
   1.37977    0.236(30)   1087.     0.2434    0.2434     1601
   1.38032    0.267(32)   956.      0.2434    0.2434     1602
   1.38087    0.225(30)   1135.     0.2434    0.2434     1603
   1.38142    0.249(31)   1023.     0.2433    0.2433     1604
   1.38197    0.31(4)     813.      0.243     0.243      1605
   1.38252    0.269(33)   940.      0.2433    0.2433     1606
   1.38307    0.199(28)   1271.     0.2433    0.2433     1607
   1.38362    0.251(32)   1006.     0.2433    0.2433     1608
   1.38417    0.224(30)   1127.     0.2433    0.2433     1609
   1.38472    0.287(34)   874.      0.2433    0.2433     1610
   1.38527    0.228(30)   1098.     0.2433    0.2433     1611
   1.38582    0.221(30)   1133.     0.2433    0.2433     1612
   1.38637    0.261(32)   956.      0.2433    0.2433     1613
   1.38692    0.206(29)   1212.     0.2433    0.2433     1614
   1.38747    0.206(29)   1207.     0.2433    0.2433     1615
   1.38802    0.211(29)   1179.     0.2433    0.2433     1616
   1.38857    0.251(32)   986.      0.2433    0.2433     1617
   1.38912    0.260(32)   951.      0.2433    0.2433     1618
   1.38967    0.252(32)   978.      0.2433    0.2433     1619
   1.39022    0.257(32)   958.      0.2433    0.2433     1620
   1.39077    0.229(31)   1073.     0.2432    0.2432     1621
   1.39132    0.205(29)   1196.     0.2432    0.2432     1622
   1.39187    0.278(34)   877.      0.2432    0.2432     1623
   1.39242    0.234(31)   1042.     0.2432    0.2432     1624
   1.39297    0.271(33)   896.      0.2432    0.2432     1625
   1.39352    0.239(31)   1016.     0.2432    0.2432     1626
   1.39407    0.236(31)   1029.     0.2432    0.2432     1627
   1.39462    0.220(30)   1102.     0.2432    0.2432     1628
   1.39517    0.233(31)   1039.     0.2432    0.2432     1629
   1.39572    0.172(27)   1410.     0.2432    0.2432     1630
   1.39627    0.217(30)   1110.     0.2432    0.2432     1631
   1.39682    0.242(32)   991.      0.2432    0.2432     1632
   1.39737    0.197(29)   1217.     0.2432    0.2432     1633
   1.39792    0.30(4)     792.      0.243     0.243      1634
   1.39847    0.210(30)   1135.     0.2432    0.2432     1635
   1.39902    0.248(32)   959.      0.2432    0.2432     1636
   1.39957    0.261(33)   909.      0.2432    0.2432     1637
   1.40012    0.32(4)     747.      0.243     0.243      1638
   1.40067    0.30(4)     798.      0.243     0.243      1639
   1.40122    0.213(30)   1113.     0.2432    0.2432     1640
   1.40177    0.242(32)   972.      0.2432    0.2432     1641
   1.40232    0.213(30)   1104.     0.2432    0.2432     1642
   1.40287    0.218(30)   1078.     0.2432    0.2432     1643
   1.40342    0.235(32)   996.      0.2432    0.2432     1644
   1.40397    0.248(33)   940.      0.2432    0.2432     1645
   1.40452    0.215(30)   1086.     0.2432    0.2432     1646
   1.40507    0.232(32)   1002.     0.2432    0.2432     1647
   1.40562    0.195(29)   1196.     0.2432    0.2432     1648
_pd_proc_number_of_points              1648

loop_
      _refln_index_h
      _refln_index_k
      _refln_index_l
      _pd_refln_phase_id
      _refln_observed_status
      _refln_F_squared_meas
      _refln_F_squared_calc
      _refln_phase_calc
      _refln_d_spacing
      _gsas_i100_meas
   4   0   0  2 o   9.773   9.812  180.00   1.35739  11.88
   3   3   1  2 o   4.799   4.801   0.00    1.24563  16.69
   2   2   0  1 o  15.254  15.195   0.00    1.24572  96.38
   4   2   2  2 o   9.070   9.260   0.00    1.10831  19.98
   3   1   1  1 o  14.752  14.576   0.00    1.06236 100.00
   3   3   3  2 o   4.808   4.531   0.00    1.04492   2.80
   5   1   1  2 o   4.808   4.531   0.00    1.04492   8.41
   2   2   2  1 o  14.685  14.376   0.00    1.01713  27.98
   4   4   0  2 o   8.118   8.739   0.00    0.95982   5.09
   5   3   1  2 o   3.801   4.276   0.00    0.91777   7.99
   4   4   2  2 o   0.000   0.000  180.00   0.90493   0.00
   4   0   0  1 o  13.858  13.601   0.00    0.88086  11.26
   6   2   0  2 o   8.658   8.248   0.00    0.85849   7.00
   5   3   3  2 o   4.493   4.035  180.00   0.82800   3.15
   6   2   2  2 o   0.000   0.000  180.00   0.81854   0.00
   3   3   1  1 o  12.984  13.048   0.00    0.80833  30.09
   4   2   0  1 o  12.898  12.869   0.00    0.78786  27.01
   4   4   4  2 o   8.561   7.784  180.00   0.78369   1.61
   5   5   1  2 o   4.169   3.808  180.00   0.76029   2.09
   7   1   1  2 o   4.169   3.808   0.00    0.76029   2.09
   6   4   2  2 o   7.154   7.346  180.00   0.72556   5.96
   4   2   2  1 o  11.955  12.175   0.00    0.71922  17.48
   5   5   3  2 o   3.795   3.594  180.00   0.70687   1.43
   7   3   1  2 o   3.795   3.594  180.00   0.70687   2.85
   8   0   0  2 o   6.900   6.932   0.00    0.67870   0.55
   3   3   3  1 o  11.631  11.680   0.00    0.67809   4.49
   5   1   1  1 o  11.631  11.680   0.00    0.67809  13.48
   7   3   3  2 o   3.048   3.392  180.00   0.66333   0.89
   6   4   4  2 o   0.003   0.000   0.00    0.65843   0.00
   6   6   0  2 o   4.818   6.542  180.00   0.63988   0.61
   8   2   2  2 o   4.818   6.542  180.00   0.63988   1.22
   7   5   1  2 o   2.488   3.201  180.00   0.62695   1.17
   5   5   5  2 o   2.488   3.201   0.00    0.62695   0.19
   4   4   0  1 o   9.780  10.899   0.00    0.62286   4.05
   6   6   2  2 o   0.000   0.000   0.00    0.62281   0.00
   8   4   0  2 o   7.375   6.174  180.00   0.60704   1.52
   7   5   3  2 o   3.112   3.021   0.00    0.59597   1.19
   9   1   1  2 o   3.112   3.021  180.00   0.59597   0.60
   5   3   1  1 o  10.791  10.455   0.00    0.59557  14.98
   8   4   2  2 o   0.000   0.000   0.00    0.59241   0.00
   6   0   0  1 o  11.038  10.312   0.00    0.58724   1.81
   4   4   2  1 o  11.038  10.311   0.00    0.58724   7.25
   6   6   4  2 o   7.223   5.827   0.00    0.57879   1.23
   9   3   1  2 o   3.159   2.851  180.00   0.56917   1.01
   6   2   0  1 o   9.679   9.756   0.00    0.55710   5.16
   8   4   4  2 o   5.944   5.499   0.00    0.55415   0.85
   7   5   5  2 o   2.868   2.691   0.00    0.54569   0.39
   9   3   3  2 o   2.868   2.691   0.00    0.54569   0.39
   7   7   1  2 o   2.868   2.691   0.00    0.54569   0.39
   5   3   3  1 o   9.365   9.359   0.00    0.53732   4.33
  10   2   0  2 o   5.157   5.190  180.00   0.53241   0.63
   8   6   2  2 o   5.157   5.190   0.00    0.53241   1.27
   6   2   2  1 o   9.037   9.230   0.00    0.53118   3.99
   9   5   1  2 o   2.195   2.539   0.00    0.52490   0.51
   7   7   3  2 o   2.195   2.539   0.00    0.52490   0.25
  10   2   2  2 o   0.000   0.000   0.00    0.52246   0.00
   6   6   6  2 o   0.000   0.000   0.00    0.52246   0.00
   4   4   4  1 o   7.498   8.733   0.00    0.50856   0.93
   9   5   3  2 o   2.350   2.396   0.00    0.50631   0.47
   8   6   4  2 o   0.000   0.000  180.00   0.50412   0.00
_reflns_number_observed                60
_reflns_limit_h_min                    1
_reflns_limit_h_max                    11
_reflns_limit_k_min                    0
_reflns_limit_k_max                    7
_reflns_limit_l_min                    0
_reflns_limit_l_max                    6
_reflns_d_resolution_high              0.504
_reflns_d_resolution_low               1.357

# Powder diffraction data for histogram  2
data_NISI_p_02

_pd_block_id
  2002-12-22T17:32|NISI_H_02|Brian_H._Toby|GPD
#==============================================================================
# 9. INSTRUMENT CHARACTERIZATION

_exptl_special_details
; ?
;

# if regions of the data are excluded, the reason(s) are supplied here:
_pd_proc_info_excluded_regions
; ?
;

# The following item is used to identify the equipment used to record
# the powder pattern when the diffractogram was measured at a laboratory
# other than the authors' home institution, e.g. when neutron or synchrotron
# radiation is used.

_pd_instr_location
; ?
;
_pd_calibration_special_details           # description of the method used
                                          # to calibrate the instrument
; ?
;

_diffrn_ambient_temperature       ?
_diffrn_source                    ?
_diffrn_source_target             ?
_diffrn_source_type               ?
_diffrn_measurement_device_type   ?
_diffrn_detector                  ?
_diffrn_detector_type             ?       # make or model of detector

_pd_meas_scan_method              ?       # options are 'step', 'cont',
                                          # 'tof', 'fixed' or
                                          # 'disp' (= dispersive)
_pd_meas_special_details
;  ?
;

# The following two items identify the program(s) used (if appropriate).
_computing_data_collection        ?
_computing_data_reduction         ?

# Describe any processing performed on the data, prior to refinement.
# For example: a manual Lp correction or a precomputed absorption correction
_pd_proc_info_data_reduction      ?

# The following item is used for angular dispersive measurements only.

_diffrn_radiation_monochromator   ?

# The following items are used to define the size of the instrument.
# Not all distances are appropriate for all instrument types.

_pd_instr_dist_src/mono           ?
_pd_instr_dist_mono/spec          ?
_pd_instr_dist_src/spec           ?
_pd_instr_dist_spec/anal          ?
_pd_instr_dist_anal/detc          ?
_pd_instr_dist_spec/detc          ?

# 10. Specimen size and mounting information

# The next three fields give the specimen dimensions in mm.  The equatorial
# plane contains the incident and diffracted beam.

_pd_spec_size_axial               ?       # perpendicular to
                                          # equatorial plane

_pd_spec_size_equat               ?       # parallel to
                                          # scattering vector
                                          # in transmission

_pd_spec_size_thick               ?       # parallel to
                                          # scattering vector
                                          # in reflection

_pd_spec_mounting                         # This field should be
                                          # used to give details of the
                                          # container.
; ?
;

_pd_spec_mount_mode               ?       # options are 'reflection'
                                          # or 'transmission'

_pd_spec_shape                    ?       # options are 'cylinder'
                                          # 'flat_sheet' or 'irregular'

# phase table
loop_     _pd_phase_id
          _pd_phase_block_id
          _pd_phase_mass_%
          _pd_proc_ls_profile_function
          _pd_proc_ls_peak_cutoff
  1  2002-12-22T17:32|NISI_phase1|Brian_H._Toby||
           51.38
;
 TOF Profile function number 1 with  12 terms
 Profile coefficients for Von Dreele,
 Jorgensen & Windsor convolution function
  J. Appl. Cryst., 15,581-589(1982)
  Modified by Von Dreele - unpublished (1983).
 #1(alp-0) =   0.0000 #3(bet-0) =   5.5766E-02 #5(sig-0) =      2.422
 #2(alp-1) =   0.1428 #4(bet-1) =   3.4450E-03 #6(sig-1) =     71.488
 #8(rstr ) =    0.000 #9(rsta ) =        0.000 #7(sig-2) =     14.951
 #10(rsca) =    0.000 #11(s1ec) =         0.00 #12(s2ec) =       0.00
 Peak tails are ignored  where the intensity is below 0.0050 times the peak
   Aniso. broadening axis   0.0   0.0   1.0
;
           0.00500
  2  2002-12-22T17:32|NISI_phase2|Brian_H._Toby||
           48.62(28)
;
 TOF Profile function number 1 with  12 terms
 Profile coefficients for Von Dreele,
 Jorgensen & Windsor convolution function
  J. Appl. Cryst., 15,581-589(1982)
  Modified by Von Dreele - unpublished (1983).
 #1(alp-0) =   0.0000 #3(bet-0) =   5.5766E-02 #5(sig-0) =      0.208
 #2(alp-1) =   0.1428 #4(bet-1) =   3.4450E-03 #6(sig-1) =     57.992
 #8(rstr ) =    0.000 #9(rsta ) =        0.000 #7(sig-2) =      0.000
 #10(rsca) =    0.000 #11(s1ec) =         0.00 #12(s2ec) =       0.00
 Peak tails are ignored  where the intensity is below 0.0050 times the peak
   Aniso. broadening axis   0.0   0.0   1.0
;
           0.00500

loop_ _atom_type_symbol
      _atom_type_scat_length_neutron
      _atom_type_scat_source
  NI   1.0300
  International_Tables_Vol_C
  SI   0.4149
  International_Tables_Vol_C
_diffrn_radiation_probe                neutron
_pd_proc_ls_prof_R_factor              0.0270
_pd_proc_ls_prof_wR_factor             0.0363
_pd_proc_ls_prof_wR_expected           0.0222
_refine_ls_R_Fsqd_factor               0.07645

_pd_proc_ls_background_function
;   GSAS Background function number 4 with  4 terms.
 Power series in Q**2n/n!
      1:   0.254241     2:   1.830450E-03 3:  -1.977130E-05 4:   1.556390E-07
;

_exptl_absorpt_process_details
;   GSAS Absorption/surface roughness correction: function number 0
 Debye-Scherrer absorption correction
Term (= MU.r/wave) =     0.24308E-01
Correction is refined.
;
_exptl_absorpt_correction_T_min        0.90482
_exptl_absorpt_correction_T_max        0.97471
# Extinction correction
_gsas_exptl_extinct_corr_T_min         1.00000
_gsas_exptl_extinct_corr_T_max         1.00000
_pd_proc_info_datetime                 2002-12-22T17:32:19
_pd_calc_method                        "Rietveld Refinement"
_pd_meas_2theta_fixed                  88.05

#---- raw data loop -----

loop_ _pd_meas_time_of_flight
      _pd_meas_intensity_total
      _pd_meas_point_id
      750.4   2780(42)     470
      752.0   2776(42)     471
      753.6   2775(42)     472
      755.2   2746(41)     473
      756.8   2779(42)     474
      758.4   2769(42)     475
      760.0   2743(41)     476
      761.6   2755(41)     477
      763.2   2712(41)     478
      764.8   2693(41)     479
      766.4   2758(42)     480
      768.0   2776(42)     481
      769.6   2686(41)     482
      771.2   2663(41)     483
      772.8   2716(41)     484
      774.4   2688(41)     485
      776.0   2653(41)     486
      777.6   2672(41)     487
      779.2   2692(41)     488
      780.8   2708(41)     489
      782.4   2721(41)     490
      784.0   2691(41)     491
      785.6   2668(41)     492
      787.2   2595(40)     493
      788.8   2636(41)     494
      790.4   2668(41)     495
      792.0   2639(41)     496
      793.6   2636(41)     497
      795.2   2659(41)     498
      796.8   2637(41)     499
      798.4   2564(40)     500
      800.0   2632(41)     501
      801.6   2633(41)     502
      803.2   2649(41)     503
      804.8   2638(41)     504
      806.4   2600(40)     505
      808.0   2543(40)     506
      809.6   2541(40)     507
      811.2   2591(40)     508
      812.8   2585(40)     509
      814.4   2617(40)     510
      816.0   2579(40)     511
      817.6   2607(40)     512
      819.2   2568(40)     513
      820.8   2537(40)     514
      822.4   2567(40)     515
      824.0   2576(40)     516
      825.6   2553(40)     517
      827.2   2559(40)     518
      828.8   2554(40)     519
      830.4   2558(40)     520
      832.0   2568(40)     521
      833.6   2507(40)     522
      835.2   2538(40)     523
      836.8   2537(40)     524
      838.4   2546(40)     525
      840.0   2545(40)     526
      841.6   2511(40)     527
      843.2   2514(40)     528
      844.8   2463(39)     529
      846.4   2491(39)     530
      848.0   2499(40)     531
      849.6   2471(39)     532
      851.2   2431(39)     533
      852.8   2454(39)     534
      854.4   2496(39)     535
      856.0   2480(39)     536
      857.6   2428(39)     537
      859.2   2409(39)     538
      860.8   2461(39)     539
      862.4   2419(39)     540
      864.0   2464(39)     541
      865.6   2427(39)     542
      867.2   2414(39)     543
      868.8   2415(39)     544
      870.4   2450(39)     545
      872.0   2393(39)     546
      873.6   2383(39)     547
      875.2   2356(38)     548
      876.8   2459(39)     549
      878.4   2425(39)     550
      880.0   2419(39)     551
      881.6   2434(39)     552
      883.2   2363(38)     553
      884.8   2403(39)     554
      886.4   2353(38)     555
      888.0   2393(39)     556
      889.6   2390(39)     557
      891.2   2365(38)     558
      892.8   2446(39)     559
      894.4   2369(38)     560
      896.0   2388(39)     561
      897.6   2335(38)     562
      899.2   2358(38)     563
      900.8   2368(38)     564
      902.4   2388(39)     565
      904.0   2348(38)     566
      905.6   2348(38)     567
      907.2   2304(38)     568
      908.8   2358(38)     569
      910.4   2300(38)     570
      912.0   2348(38)     571
      913.6   2331(38)     572
      915.2   2266(38)     573
      916.8   2329(38)     574
      918.4   2360(38)     575
      920.0   2301(38)     576
      921.6   2321(38)     577
      923.2   2362(38)     578
      924.8   2329(38)     579
      926.4   2284(38)     580
      928.0   2343(38)     581
      929.6   2349(38)     582
      931.2   2259(38)     583
      932.8   2287(38)     584
      934.4   2283(38)     585
      936.0   2278(38)     586
      937.6   2328(38)     587
      939.2   2293(38)     588
      940.8   2251(38)     589
      942.4   2244(37)     590
      944.0   2266(38)     591
      945.6   2211(37)     592
      947.2   2273(38)     593
      948.8   2276(38)     594
      950.4   2224(37)     595
      952.0   2287(38)     596
      953.6   2277(38)     597
      955.2   2248(37)     598
      956.8   2263(38)     599
      958.4   2221(37)     600
      960.0   2296(38)     601
      961.6   2318(38)     602
      963.2   2269(38)     603
      964.8   2221(37)     604
      966.4   2287(38)     605
      968.0   2239(37)     606
      969.6   2210(37)     607
      971.2   2245(37)     608
      972.8   2307(38)     609
      974.4   2324(38)     610
      976.0   2250(38)     611
      977.6   2233(37)     612
      979.2   2208(37)     613
      980.8   2218(37)     614
      982.4   2214(37)     615
      984.0   2252(38)     616
      985.6   2223(37)     617
      987.2   2196(37)     618
      988.8   2193(37)     619
      990.4   2216(37)     620
      992.0   2235(37)     621
      993.6   2168(37)     622
      995.2   2169(37)     623
      996.8   2171(37)     624
      998.4   2126(36)     625
      1000.0   2122(36)     626
      1001.6   2215(37)     627
      1003.2   2173(37)     628
      1004.8   2196(37)     629
      1006.4   2178(37)     630
      1008.0   2192(37)     631
      1009.6   2203(37)     632
      1011.2   2195(37)     633
      1012.8   2161(37)     634
      1014.4   2149(37)     635
      1016.0   2133(37)     636
      1017.6   2130(36)     637
      1019.2   2151(37)     638
      1020.8   2161(37)     639
      1022.4   2159(37)     640
      1024.0   2139(37)     641
      1025.6   2193(37)     642
      1027.2   2154(37)     643
      1028.8   2172(37)     644
      1030.4   2142(37)     645
      1032.0   2170(37)     646
      1033.6   2163(37)     647
      1035.2   2155(37)     648
      1036.8   2109(36)     649
      1038.4   2103(36)     650
      1040.0   2126(36)     651
      1041.6   2154(37)     652
      1043.2   2138(37)     653
      1044.8   2143(37)     654
      1046.4   2157(37)     655
      1048.0   2108(36)     656
      1049.6   2110(36)     657
      1051.2   2143(37)     658
      1052.8   2090(36)     659
      1054.4   2143(37)     660
      1056.0   2106(36)     661
      1057.6   2092(36)     662
      1059.2   2105(36)     663
      1060.8   2092(36)     664
      1062.4   2119(36)     665
      1064.0   2133(37)     666
      1065.6   2130(36)     667
      1067.2   2079(36)     668
      1068.8   2064(36)     669
      1070.4   2044(36)     670
      1072.0   2066(36)     671
      1073.6   2060(36)     672
      1075.2   2056(36)     673
      1076.8   2061(36)     674
      1078.4   2084(36)     675
      1080.0   2132(37)     676
      1081.6   2130(36)     677
      1083.2   2142(37)     678
      1084.8   2086(36)     679
      1086.4   2069(36)     680
      1088.0   2173(37)     681
      1089.6   2116(36)     682
      1091.2   2050(36)     683
      1092.8   2129(36)     684
      1094.4   2114(36)     685
      1096.0   2058(36)     686
      1097.6   2039(36)     687
      1099.2   2104(36)     688
      1100.8   2061(36)     689
      1102.4   2089(36)     690
      1104.0   2059(36)     691
      1105.6   2107(36)     692
      1107.2   2081(36)     693
      1108.8   2036(36)     694
      1110.4   2050(36)     695
      1112.0   2025(36)     696
      1113.6   1988(35)     697
      1115.2   1979(35)     698
      1116.8   2039(36)     699
      1118.4   2019(36)     700
      1120.0   2028(36)     701
      1121.6   1978(35)     702
      1123.2   1971(35)     703
      1124.8   2046(36)     704
      1126.4   1956(35)     705
      1128.0   2044(36)     706
      1129.6   2023(36)     707
      1131.2   1989(35)     708
      1132.8   1989(35)     709
      1134.4   2014(35)     710
      1136.0   2012(35)     711
      1137.6   2022(36)     712
      1139.2   1961(35)     713
      1140.8   1993(35)     714
      1142.4   2001(35)     715
      1144.0   2043(36)     716
      1145.6   1971(35)     717
      1147.2   1981(35)     718
      1148.8   2041(36)     719
      1150.4   2043(36)     720
      1152.0   2201(37)     721
      1153.6   2118(36)     722
      1155.2   2083(36)     723
      1156.8   2040(36)     724
      1158.4   2047(36)     725
      1160.0   2011(35)     726
      1161.6   2020(36)     727
      1163.2   2007(35)     728
      1164.8   1986(35)     729
      1166.4   2015(35)     730
      1168.0   2006(35)     731
      1169.6   1992(35)     732
      1171.2   1936(35)     733
      1172.8   1965(35)     734
      1174.4   1991(35)     735
      1176.0   2059(36)     736
      1177.6   2059(36)     737
      1179.2   2118(36)     738
      1180.8   2062(36)     739
      1182.4   1989(35)     740
      1184.0   2051(36)     741
      1185.6   2013(35)     742
      1187.2   1991(35)     743
      1188.8   1961(35)     744
      1190.4   2017(36)     745
      1192.0   1982(35)     746
      1193.6   1962(35)     747
      1195.2   1980(35)     748
      1196.8   1920(35)     749
      1198.4   1987(35)     750
      1200.0   2009(35)     751
      1201.6   1986(35)     752
      1203.2   2037(36)     753
      1204.8   2063(36)     754
      1206.4   2040(36)     755
      1208.0   2064(36)     756
      1209.6   1988(35)     757
      1211.2   1988(35)     758
      1212.8   1980(35)     759
      1214.4   2017(36)     760
      1216.0   1969(35)     761
      1217.6   1919(35)     762
      1219.2   1893(34)     763
      1220.8   1916(35)     764
      1222.4   1926(35)     765
      1224.0   1970(35)     766
      1225.6   1883(34)     767
      1227.2   1854(34)     768
      1228.8   1878(34)     769
      1230.4   1920(35)     770
      1232.0   1899(34)     771
      1233.6   1957(35)     772
      1235.2   1938(35)     773
      1236.8   1948(35)     774
      1238.4   1983(35)     775
      1240.0   1996(35)     776
      1241.6   1983(35)     777
      1243.2   1948(35)     778
      1244.8   1911(35)     779
      1246.4   2011(35)     780
      1248.0   2010(35)     781
      1249.6   1981(35)     782
      1251.2   1987(35)     783
      1252.8   1952(35)     784
      1254.4   1979(35)     785
      1256.0   1953(35)     786
      1257.6   1953(35)     787
      1259.2   1975(35)     788
      1260.8   1906(35)     789
      1262.4   1915(35)     790
      1264.0   1940(35)     791
      1265.6   1888(34)     792
      1267.2   1896(34)     793
      1268.8   1977(35)     794
      1270.4   2016(35)     795
      1272.0   1973(35)     796
      1273.6   1970(35)     797
      1275.2   1924(35)     798
      1276.8   1939(35)     799
      1278.4   1927(35)     800
      1280.0   1925(35)     801
      1281.6   1961(35)     802
      1283.2   1953(35)     803
      1284.8   1943(35)     804
      1286.4   1903(34)     805
      1288.0   1886(34)     806
      1289.6   1897(34)     807
      1291.2   1829(34)     808
      1292.8   1860(34)     809
      1294.4   1889(34)     810
      1296.0   1872(34)     811
      1297.6   1896(34)     812
      1299.2   1924(35)     813
      1300.8   1970(35)     814
      1302.4   1995(35)     815
      1304.0   2024(36)     816
      1305.6   2024(36)     817
      1307.2   2068(36)     818
      1308.8   2068(36)     819
      1310.4   2019(36)     820
      1312.0   1887(34)     821
      1313.6   1957(35)     822
      1315.2   1919(35)     823
      1316.8   1914(35)     824
      1318.4   1907(35)     825
      1320.0   1930(35)     826
      1321.6   1961(35)     827
      1323.2   1973(35)     828
      1324.8   1938(35)     829
      1326.4   1917(35)     830
      1328.0   1953(35)     831
      1329.6   1904(34)     832
      1331.2   1853(34)     833
      1332.8   1868(34)     834
      1334.4   1825(34)     835
      1336.0   1884(34)     836
      1337.6   1917(35)     837
      1339.2   1956(35)     838
      1340.8   1988(35)     839
      1342.4   2048(36)     840
      1344.0   2145(37)     841
      1345.6   2186(37)     842
      1347.2   2191(37)     843
      1348.8   2172(37)     844
      1350.4   2119(36)     845
      1352.0   1966(35)     846
      1353.6   1948(35)     847
      1355.2   1916(35)     848
      1356.8   1885(34)     849
      1358.4   1823(34)     850
      1360.0   1754(33)     851
      1361.6   1845(34)     852
      1363.2   1829(34)     853
      1364.8   1813(34)     854
      1366.4   1812(34)     855
      1368.0   1786(33)     856
      1369.6   1779(33)     857
      1371.2   1751(33)     858
      1372.8   1746(33)     859
      1374.4   1783(33)     860
      1376.0   1801(34)     861
      1377.6   1809(34)     862
      1379.2   1801(34)     863
      1380.8   1788(33)     864
      1382.4   1791(33)     865
      1384.0   1844(34)     866
      1385.6   1836(34)     867
      1387.2   1846(34)     868
      1388.8   1888(34)     869
      1390.4   1906(35)     870
      1392.0   1935(35)     871
      1393.6   1861(34)     872
      1395.2   1831(34)     873
      1396.8   1821(34)     874
      1398.4   1787(33)     875
      1400.0   1861(34)     876
      1401.6   1835(34)     877
      1403.2   1838(34)     878
      1404.8   1833(34)     879
      1406.4   1840(34)     880
      1408.0   1885(34)     881
      1409.6   1943(35)     882
      1411.2   1864(34)     883
      1412.8   1846(34)     884
      1414.4   1828(34)     885
      1416.0   1788(33)     886
      1417.6   1823(34)     887
      1419.2   1753(33)     888
      1420.8   1767(33)     889
      1422.4   1839(34)     890
      1424.0   1829(34)     891
      1425.6   1844(34)     892
      1427.2   1919(35)     893
      1428.8   1980(35)     894
      1430.4   2023(36)     895
      1432.0   2082(36)     896
      1433.6   2148(37)     897
      1435.2   2159(37)     898
      1436.8   2114(36)     899
      1438.4   2027(36)     900
      1440.0   1965(35)     901
      1441.6   1993(35)     902
      1443.2   1865(34)     903
      1444.8   1829(34)     904
      1446.4   1814(34)     905
      1448.0   1791(33)     906
      1449.6   1739(33)     907
      1451.2   1682(32)     908
      1452.8   1764(33)     909
      1454.4   1746(33)     910
      1456.0   1679(32)     911
      1457.6   1729(33)     912
      1459.2   1715(33)     913
      1460.8   1701(33)     914
      1462.4   1695(33)     915
      1464.0   1751(33)     916
      1465.6   1687(32)     917
      1467.2   1738(33)     918
      1468.8   1724(33)     919
      1470.4   1706(33)     920
      1472.0   1721(33)     921
      1473.6   1719(33)     922
      1475.2   1739(33)     923
      1476.8   1723(33)     924
      1478.4   1830(34)     925
      1480.0   1829(34)     926
      1481.6   1833(34)     927
      1483.2   1948(35)     928
      1484.8   1980(35)     929
      1486.4   2040(36)     930
      1488.0   2114(36)     931
      1489.6   2064(36)     932
      1491.2   2059(36)     933
      1492.8   2057(36)     934
      1494.4   1984(35)     935
      1496.0   1966(35)     936
      1497.6   1914(35)     937
      1499.2   1847(34)     938
      1500.8   1864(34)     939
      1502.4   1862(34)     940
      1504.0   1881(34)     941
      1505.6   1937(35)     942
      1507.2   2029(36)     943
      1508.8   2049(36)     944
      1510.4   2083(36)     945
      1512.0   2113(36)     946
      1513.6   2070(36)     947
      1515.2   1990(35)     948
      1516.8   1896(34)     949
      1518.4   1874(34)     950
      1520.0   1829(34)     951
      1521.6   1848(34)     952
      1523.2   1792(33)     953
      1524.8   1742(33)     954
      1526.4   1721(33)     955
      1528.0   1712(33)     956
      1529.6   1713(33)     957
      1531.2   1731(33)     958
      1532.8   1699(33)     959
      1534.4   1714(33)     960
      1536.0   1723(33)     961
      1537.6   1759(33)     962
      1539.2   1834(34)     963
      1540.8   1849(34)     964
      1542.4   1924(35)     965
      1544.0   2004(35)     966
      1545.6   2041(36)     967
      1547.2   2119(36)     968
      1548.8   2126(36)     969
      1550.4   2095(36)     970
      1552.0   2021(36)     971
      1553.6   2013(35)     972
      1555.2   1908(35)     973
      1556.8   1834(34)     974
      1558.4   1749(33)     975
      1560.0   1704(33)     976
      1561.6   1660(32)     977
      1563.2   1611(32)     978
      1564.8   1656(32)     979
      1566.4   1653(32)     980
      1568.0   1684(32)     981
      1569.6   1688(32)     982
      1571.2   1705(33)     983
      1572.8   1755(33)     984
      1574.4   1743(33)     985
      1576.0   1741(33)     986
      1577.6   1709(33)     987
      1579.2   1693(33)     988
      1580.8   1666(32)     989
      1582.4   1666(32)     990
      1584.0   1582(31)     991
      1585.6   1636(32)     992
      1587.2   1615(32)     993
      1588.8   1598(32)     994
      1590.4   1580(31)     995
      1592.0   1528(31)     996
      1593.6   1551(31)     997
      1595.2   1558(31)     998
      1596.8   1603(32)     999
      1598.4   1601(32)    1000
      1600.0   1614(32)    1001
      1601.6   1612(32)    1002
      1603.2   1564(31)    1003
      1604.8   1616(32)    1004
      1606.4   1655(32)    1005
      1608.0   1677(32)    1006
      1609.6   1759(33)    1007
      1611.2   1755(33)    1008
      1612.8   1855(34)    1009
      1614.4   2023(36)    1010
      1616.0   1994(35)    1011
      1617.6   1986(35)    1012
      1619.2   1932(35)    1013
      1620.8   1904(34)    1014
      1622.4   1797(34)    1015
      1624.0   1744(33)    1016
      1625.6   1671(32)    1017
      1627.2   1633(32)    1018
      1628.8   1636(32)    1019
      1630.4   1650(32)    1020
      1632.0   1636(32)    1021
      1633.6   1645(32)    1022
      1635.2   1638(32)    1023
      1636.8   1664(32)    1024
      1638.4   1691(33)    1025
      1640.0   1730(33)    1026
      1641.6   1752(33)    1027
      1643.2   1715(33)    1028
      1644.8   1798(34)    1029
      1646.4   1744(33)    1030
      1648.0   1659(32)    1031
      1649.6   1600(32)    1032
      1651.2   1641(32)    1033
      1652.8   1586(31)    1034
      1654.4   1528(31)    1035
      1656.0   1548(31)    1036
      1657.6   1508(31)    1037
      1659.2   1557(31)    1038
      1660.8   1551(31)    1039
      1662.4   1535(31)    1040
      1664.0   1619(32)    1041
      1665.6   1620(32)    1042
      1667.2   1569(31)    1043
      1668.8   1621(32)    1044
      1670.4   1613(32)    1045
      1672.0   1688(32)    1046
      1673.6   1771(33)    1047
      1675.2   1799(34)    1048
      1676.8   1911(35)    1049
      1678.4   2037(36)    1050
      1680.0   2089(36)    1051
      1681.6   2156(37)    1052
      1683.2   2176(37)    1053
      1684.8   2180(37)    1054
      1686.4   2259(38)    1055
      1688.0   2341(38)    1056
      1689.6   2298(38)    1057
      1691.2   2321(38)    1058
      1692.8   2318(38)    1059
      1694.4   2224(37)    1060
      1696.0   2166(37)    1061
      1697.6   2075(36)    1062
      1699.2   1928(35)    1063
      1700.8   1813(34)    1064
      1702.4   1790(33)    1065
      1704.0   1698(33)    1066
      1705.6   1655(32)    1067
      1707.2   1650(32)    1068
      1708.8   1646(32)    1069
      1710.4   1610(32)    1070
      1712.0   1538(31)    1071
      1713.6   1547(31)    1072
      1715.2   1584(31)    1073
      1716.8   1612(32)    1074
      1718.4   1611(32)    1075
      1720.0   1638(32)    1076
      1721.6   1678(32)    1077
      1723.2   1748(33)    1078
      1724.8   1713(33)    1079
      1726.4   1729(33)    1080
      1728.0   1683(32)    1081
      1729.6   1661(32)    1082
      1731.2   1634(32)    1083
      1732.8   1566(31)    1084
      1734.4   1582(31)    1085
      1736.0   1558(31)    1086
      1737.6   1509(31)    1087
      1739.2   1513(31)    1088
      1740.8   1489(31)    1089
      1742.4   1474(30)    1090
      1744.0   1527(31)    1091
      1745.6   1535(31)    1092
      1747.2   1526(31)    1093
      1748.8   1543(31)    1094
      1750.4   1514(31)    1095
      1752.0   1554(31)    1096
      1753.6   1526(31)    1097
      1755.2   1514(31)    1098
      1756.8   1548(31)    1099
      1758.4   1559(31)    1100
      1760.0   1573(31)    1101
      1761.6   1614(32)    1102
      1763.2   1651(32)    1103
      1764.8   1681(32)    1104
      1766.4   1724(33)    1105
      1768.0   1806(34)    1106
      1769.6   1881(34)    1107
      1771.2   1921(35)    1108
      1772.8   1967(35)    1109
      1774.4   2154(37)    1110
      1776.0   2159(37)    1111
      1777.6   2214(37)    1112
      1779.2   2246(37)    1113
      1780.8   2266(38)    1114
      1782.4   2171(37)    1115
      1784.0   2066(36)    1116
      1785.6   1990(35)    1117
      1787.2   1892(34)    1118
      1788.8   1743(33)    1119
      1790.4   1654(32)    1120
      1792.0   1583(31)    1121
      1793.6   1581(31)    1122
      1795.2   1516(31)    1123
      1796.8   1524(31)    1124
      1798.4   1517(31)    1125
      1800.0   1451(30)    1126
      1801.6   1510(31)    1127
      1803.2   1534(31)    1128
      1804.8   1524(31)    1129
      1806.4   1557(31)    1130
      1808.0   1569(31)    1131
      1809.6   1660(32)    1132
      1811.2   1773(33)    1133
      1812.8   1861(34)    1134
      1814.4   1929(35)    1135
      1816.0   1964(35)    1136
      1817.6   1959(35)    1137
      1819.2   1961(35)    1138
      1820.8   1861(34)    1139
      1822.4   1814(34)    1140
      1824.0   1736(33)    1141
      1825.6   1666(32)    1142
      1827.2   1623(32)    1143
      1828.8   1607(32)    1144
      1830.4   1615(32)    1145
      1832.0   1631(32)    1146
      1833.6   1549(31)    1147
      1835.2   1511(31)    1148
      1836.8   1496(31)    1149
      1838.4   1488(30)    1150
      1840.0   1497(31)    1151
      1841.6   1511(31)    1152
      1843.2   1424(30)    1153
      1844.8   1424(30)    1154
      1846.4   1456(30)    1155
      1848.0   1424(30)    1156
      1849.6   1407(30)    1157
      1851.2   1394(30)    1158
      1852.8   1433(30)    1159
      1854.4   1426(30)    1160
      1856.0   1481(30)    1161
      1857.6   1515(31)    1162
      1859.2   1539(31)    1163
      1860.8   1626(32)    1164
      1862.4   1686(32)    1165
      1864.0   1819(34)    1166
      1865.6   1978(35)    1167
      1867.2   2059(36)    1168
      1868.8   2036(36)    1169
      1870.4   2126(36)    1170
      1872.0   2096(36)    1171
      1873.6   2071(36)    1172
      1875.2   2087(36)    1173
      1876.8   1969(35)    1174
      1878.4   1959(35)    1175
      1880.0   1993(35)    1176
      1881.6   1838(34)    1177
      1883.2   1856(34)    1178
      1884.8   1818(34)    1179
      1886.4   1766(33)    1180
      1888.0   1757(33)    1181
      1889.6   1631(32)    1182
      1891.2   1599(32)    1183
      1892.8   1492(31)    1184
      1894.4   1468(30)    1185
      1896.0   1445(30)    1186
      1897.6   1441(30)    1187
      1899.2   1447(30)    1188
      1900.8   1425(30)    1189
      1902.4   1431(30)    1190
      1904.0   1472(30)    1191
      1905.6   1474(30)    1192
      1907.2   1471(30)    1193
      1908.8   1496(31)    1194
      1910.4   1468(30)    1195
      1912.0   1442(30)    1196
      1913.6   1463(30)    1197
      1915.2   1384(29)    1198
      1916.8   1471(30)    1199
      1918.4   1491(31)    1200
      1920.0   1493(31)    1201
      1921.6   1513(31)    1202
      1923.2   1564(31)    1203
      1924.8   1595(32)    1204
      1926.4   1611(32)    1205
      1928.0   1618(32)    1206
      1929.6   1605(32)    1207
      1931.2   1518(31)    1208
      1932.8   1488(30)    1209
      1934.4   1514(31)    1210
      1936.0   1472(30)    1211
      1937.6   1399(30)    1212
      1939.2   1357(29)    1213
      1940.8   1366(29)    1214
      1942.4   1405(30)    1215
      1944.0   1355(29)    1216
      1945.6   1343(29)    1217
      1947.2   1346(29)    1218
      1948.8   1314(29)    1219
      1950.4   1377(29)    1220
      1952.0   1343(29)    1221
      1953.6   1396(30)    1222
      1955.2   1425(30)    1223
      1956.8   1424(30)    1224
      1958.4   1392(29)    1225
      1960.0   1431(30)    1226
      1961.6   1446(30)    1227
      1963.2   1406(30)    1228
      1964.8   1386(29)    1229
      1966.4   1349(29)    1230
      1968.0   1363(29)    1231
      1969.6   1356(29)    1232
      1971.2   1386(29)    1233
      1972.8   1443(30)    1234
      1974.4   1426(30)    1235
      1976.0   1418(30)    1236
      1977.6   1423(30)    1237
      1979.2   1471(30)    1238
      1980.8   1424(30)    1239
      1982.4   1427(30)    1240
      1984.0   1441(30)    1241
      1985.6   1389(29)    1242
      1987.2   1424(30)    1243
      1988.8   1389(29)    1244
      1990.4   1437(30)    1245
      1992.0   1448(30)    1246
      1993.6   1454(30)    1247
      1995.2   1567(31)    1248
      1996.8   1759(33)    1249
      1998.4   1910(35)    1250
      2000.0   2181(37)    1251
      2001.6   2351(38)    1252
      2003.2   2581(40)    1253
      2004.8   2741(41)    1254
      2006.4   2835(42)    1255
      2008.0   2839(42)    1256
      2009.6   2798(42)    1257
      2011.2   2675(41)    1258
      2012.8   2488(39)    1259
      2014.4   2312(38)    1260
      2016.0   2174(37)    1261
      2017.6   1980(35)    1262
      2019.2   1824(34)    1263
      2020.8   1724(33)    1264
      2022.4   1686(32)    1265
      2024.0   1609(32)    1266
      2025.6   1574(31)    1267
      2027.2   1546(31)    1268
      2028.8   1608(32)    1269
      2030.4   1561(31)    1270
      2032.0   1553(31)    1271
      2033.6   1551(31)    1272
      2035.2   1593(32)    1273
      2036.8   1568(31)    1274
      2038.4   1608(32)    1275
      2040.0   1576(31)    1276
      2041.6   1531(31)    1277
      2043.2   1508(31)    1278
      2044.8   1536(31)    1279
      2046.4   1627(32)    1280
      2048.0   1656(32)    1281
      2049.6   1663(32)    1282
      2051.2   1860(34)    1283
      2052.8   1973(35)    1284
      2054.4   2096(36)    1285
      2056.0   2299(38)    1286
      2057.6   2370(38)    1287
      2059.2   2479(39)    1288
      2060.8   2465(39)    1289
      2062.4   2445(39)    1290
      2064.0   2407(39)    1291
      2065.6   2188(37)    1292
      2067.2   2119(36)    1293
      2068.8   2028(36)    1294
      2070.4   1945(35)    1295
      2072.0   1873(34)    1296
      2073.6   1816(34)    1297
      2075.2   1761(33)    1298
      2076.8   1732(33)    1299
      2078.4   1675(32)    1300
      2080.0   1626(32)    1301
      2081.6   1509(31)    1302
      2083.2   1496(31)    1303
      2084.8   1470(30)    1304
      2086.4   1470(30)    1305
      2088.0   1401(30)    1306
      2089.6   1403(30)    1307
      2091.2   1396(30)    1308
      2092.8   1424(30)    1309
      2094.4   1469(30)    1310
      2096.0   1363(29)    1311
      2097.6   1366(29)    1312
      2099.2   1414(30)    1313
      2100.8   1378(29)    1314
      2102.4   1363(29)    1315
      2104.0   1358(29)    1316
      2105.6   1301(29)    1317
      2107.2   1372(29)    1318
      2108.8   1350(29)    1319
      2110.4   1291(28)    1320
      2112.0   1336(29)    1321
      2113.6   1403(30)    1322
      2115.2   1341(29)    1323
      2116.8   1378(29)    1324
      2118.4   1339(29)    1325
      2120.0   1349(29)    1326
      2121.6   1368(29)    1327
      2123.2   1412(30)    1328
      2124.8   1436(30)    1329
      2126.4   1461(30)    1330
      2128.0   1564(31)    1331
      2129.6   1622(32)    1332
      2131.2   1771(33)    1333
      2132.8   1849(34)    1334
      2134.4   1911(35)    1335
      2136.0   2010(35)    1336
      2137.6   2052(36)    1337
      2139.2   2021(36)    1338
      2140.8   2021(36)    1339
      2142.4   1986(35)    1340
      2144.0   1948(35)    1341
      2145.6   2004(35)    1342
      2147.2   1969(35)    1343
      2148.8   2028(36)    1344
      2150.4   2168(37)    1345
      2152.0   2301(38)    1346
      2153.6   2404(39)    1347
      2155.2   2594(40)    1348
      2156.8   2714(41)    1349
      2158.4   2778(42)    1350
      2160.0   2733(41)    1351
      2161.6   2713(41)    1352
      2163.2   2613(40)    1353
      2164.8   2468(39)    1354
      2166.4   2288(38)    1355
      2168.0   2199(37)    1356
      2169.6   2038(36)    1357
      2171.2   1881(34)    1358
      2172.8   1797(34)    1359
      2174.4   1691(33)    1360
      2176.0   1661(32)    1361
      2177.6   1605(32)    1362
      2179.2   1519(31)    1363
      2180.8   1458(30)    1364
      2182.4   1446(30)    1365
      2184.0   1456(30)    1366
      2185.6   1376(29)    1367
      2187.2   1320(29)    1368
      2188.8   1342(29)    1369
      2190.4   1309(29)    1370
      2192.0   1280(28)    1371
      2193.6   1301(29)    1372
      2195.2   1297(28)    1373
      2196.8   1337(29)    1374
      2198.4   1260(28)    1375
      2200.0   1291(28)    1376
      2201.6   1302(29)    1377
      2203.2   1290(28)    1378
      2204.8   1304(29)    1379
      2206.4   1299(28)    1380
      2208.0   1333(29)    1381
      2209.6   1328(29)    1382
      2211.2   1341(29)    1383
      2212.8   1388(29)    1384
      2214.4   1438(30)    1385
      2216.0   1486(30)    1386
      2217.6   1533(31)    1387
      2219.2   1534(31)    1388
      2220.8   1517(31)    1389
      2222.4   1513(31)    1390
      2224.0   1567(31)    1391
      2225.6   1526(31)    1392
      2227.2   1528(31)    1393
      2228.8   1511(31)    1394
      2230.4   1438(30)    1395
      2232.0   1437(30)    1396
      2233.6   1348(29)    1397
      2235.2   1319(29)    1398
      2236.8   1314(29)    1399
      2238.4   1307(29)    1400
      2240.0   1308(29)    1401
      2241.6   1284(28)    1402
      2243.2   1203(27)    1403
      2244.8   1226(28)    1404
      2246.4   1223(28)    1405
      2248.0   1219(28)    1406
      2249.6   1218(28)    1407
      2251.2   1192(27)    1408
      2252.8   1200(27)    1409
      2254.4   1224(28)    1410
      2256.0   1259(28)    1411
      2257.6   1226(28)    1412
      2259.2   1210(28)    1413
      2260.8   1249(28)    1414
      2262.4   1244(28)    1415
      2264.0   1219(28)    1416
      2265.6   1229(28)    1417
      2267.2   1219(28)    1418
      2268.8   1202(27)    1419
      2270.4   1212(28)    1420
      2272.0   1205(27)    1421
      2273.6   1221(28)    1422
      2275.2   1201(27)    1423
      2276.8   1222(28)    1424
      2278.4   1266(28)    1425
      2280.0   1204(27)    1426
      2281.6   1224(28)    1427
      2283.2   1269(28)    1428
      2284.8   1275(28)    1429
      2286.4   1296(28)    1430
      2288.0   1309(29)    1431
      2289.6   1345(29)    1432
      2291.2   1391(29)    1433
      2292.8   1435(30)    1434
      2294.4   1405(30)    1435
      2296.0   1423(30)    1436
      2297.6   1413(30)    1437
      2299.2   1397(30)    1438
      2300.8   1379(29)    1439
      2302.4   1418(30)    1440
      2304.0   1409(30)    1441
      2305.6   1356(29)    1442
      2307.2   1351(29)    1443
      2308.8   1417(30)    1444
      2310.4   1428(30)    1445
      2312.0   1555(31)    1446
      2313.6   1594(32)    1447
      2315.2   1708(33)    1448
      2316.8   1855(34)    1449
      2318.4   2063(36)    1450
      2320.0   2203(37)    1451
      2321.6   2298(38)    1452
      2323.2   2455(39)    1453
      2324.8   2586(40)    1454
      2326.4   2542(40)    1455
      2328.0   2514(40)    1456
      2329.6   2416(39)    1457
      2331.2   2323(38)    1458
      2332.8   2163(37)    1459
      2334.4   2102(36)    1460
      2336.0   2028(36)    1461
      2337.6   1936(35)    1462
      2339.2   1923(35)    1463
      2340.8   1914(35)    1464
      2342.4   1991(35)    1465
      2344.0   2105(36)    1466
      2345.6   2211(37)    1467
      2347.2   2259(38)    1468
      2348.8   2309(38)    1469
      2350.4   2299(38)    1470
      2352.0   2279(38)    1471
      2353.6   2263(38)    1472
      2355.2   2168(37)    1473
      2356.8   2075(36)    1474
      2358.4   1943(35)    1475
      2360.0   1864(34)    1476
      2361.6   1755(33)    1477
      2363.2   1624(32)    1478
      2364.8   1568(31)    1479
      2366.4   1518(31)    1480
      2368.0   1481(30)    1481
      2369.6   1435(30)    1482
      2371.2   1443(30)    1483
      2372.8   1396(30)    1484
      2374.4   1379(29)    1485
      2376.0   1358(29)    1486
      2377.6   1404(30)    1487
      2379.2   1434(30)    1488
      2380.8   1473(30)    1489
      2382.4   1481(30)    1490
      2384.0   1513(31)    1491
      2385.6   1529(31)    1492
      2387.2   1526(31)    1493
      2388.8   1534(31)    1494
      2390.4   1491(31)    1495
      2392.0   1410(30)    1496
      2393.6   1407(30)    1497
      2395.2   1405(30)    1498
      2396.8   1390(29)    1499
      2398.4   1375(29)    1500
      2400.0   1348(29)    1501
      2401.6   1309(29)    1502
      2403.2   1297(28)    1503
      2404.8   1306(29)    1504
      2406.4   1318(29)    1505
      2408.0   1308(29)    1506
      2409.6   1293(28)    1507
      2411.2   1284(28)    1508
      2412.8   1305(29)    1509
      2414.4   1301(29)    1510
      2416.0   1400(30)    1511
      2417.6   1413(30)    1512
      2419.2   1474(30)    1513
      2420.8   1501(31)    1514
      2422.4   1568(31)    1515
      2424.0   1654(32)    1516
      2425.6   1739(33)    1517
      2427.2   1801(34)    1518
      2428.8   1894(34)    1519
      2430.4   2053(36)    1520
      2432.0   2136(37)    1521
      2433.6   2221(37)    1522
      2435.2   2270(38)    1523
      2436.8   2310(38)    1524
      2438.4   2356(38)    1525
      2440.0   2279(38)    1526
      2441.6   2165(37)    1527
      2443.2   2024(36)    1528
      2444.8   1915(35)    1529
      2446.4   1862(34)    1530
      2448.0   1743(33)    1531
      2449.6   1657(32)    1532
      2451.2   1589(32)    1533
      2452.8   1569(31)    1534
      2454.4   1514(31)    1535
      2456.0   1478(30)    1536
      2457.6   1412(30)    1537
      2459.2   1406(30)    1538
      2460.8   1401(30)    1539
      2462.4   1363(29)    1540
      2464.0   1305(29)    1541
      2465.6   1312(29)    1542
      2467.2   1295(28)    1543
      2468.8   1270(28)    1544
      2470.4   1246(28)    1545
      2472.0   1253(28)    1546
      2473.6   1292(28)    1547
      2475.2   1251(28)    1548
      2476.8   1253(28)    1549
      2478.4   1287(28)    1550
      2480.0   1303(29)    1551
      2481.6   1357(29)    1552
      2483.2   1341(29)    1553
      2484.8   1387(29)    1554
      2486.4   1430(30)    1555
      2488.0   1421(30)    1556
      2489.6   1455(30)    1557
      2491.2   1445(30)    1558
      2492.8   1464(30)    1559
      2494.4   1373(29)    1560
      2496.0   1348(29)    1561
      2497.6   1368(29)    1562
      2499.2   1366(29)    1563
      2500.8   1288(28)    1564
      2502.4   1291(28)    1565
      2504.0   1246(28)    1566
      2505.6   1289(28)    1567
      2507.2   1251(28)    1568
      2508.8   1232(28)    1569
      2510.4   1247(28)    1570
      2512.0   1233(28)    1571
      2513.6   1274(28)    1572
      2515.2   1277(28)    1573
      2516.8   1289(28)    1574
      2518.4   1262(28)    1575
      2520.0   1269(28)    1576
      2521.6   1304(29)    1577
      2523.2   1376(29)    1578
      2524.8   1396(30)    1579
      2526.4   1417(30)    1580
      2528.0   1433(30)    1581
      2529.6   1436(30)    1582
      2531.2   1403(30)    1583
      2532.8   1386(29)    1584
      2534.4   1398(30)    1585
      2536.0   1418(30)    1586
      2537.6   1415(30)    1587
      2539.2   1388(29)    1588
      2540.8   1413(30)    1589
      2542.4   1381(29)    1590
      2544.0   1323(29)    1591
      2545.6   1347(29)    1592
      2547.2   1339(29)    1593
      2548.8   1394(30)    1594
      2550.4   1349(29)    1595
      2552.0   1432(30)    1596
      2553.6   1468(30)    1597
      2555.2   1579(31)    1598
      2556.8   1730(33)    1599
      2558.4   1967(35)    1600
      2560.0   2159(37)    1601
      2561.6   2274(38)    1602
      2563.2   2514(40)    1603
      2564.8   2759(42)    1604
      2566.4   2814(42)    1605
      2568.0   2835(42)    1606
      2569.6   2869(42)    1607
      2571.2   2916(43)    1608
      2572.8   2799(42)    1609
      2574.4   2704(41)    1610
      2576.0   2576(40)    1611
      2577.6   2420(39)    1612
      2579.2   2262(38)    1613
      2580.8   2131(36)    1614
      2582.4   2026(36)    1615
      2584.0   1954(35)    1616
      2585.6   1913(35)    1617
      2587.2   1908(35)    1618
      2588.8   1980(35)    1619
      2590.4   1986(35)    1620
      2592.0   2203(37)    1621
      2593.6   2443(39)    1622
      2595.2   2726(41)    1623
      2596.8   3067(44)    1624
      2598.4   3446(46)    1625
      2600.0   3793(49)    1626
      2601.6   4111(51)    1627
      2603.2   4303(52)    1628
      2604.8   4461(53)    1629
      2606.4   4504(53)    1630
      2608.0   4386(52)    1631
      2609.6   4206(51)    1632
      2611.2   3974(50)    1633
      2612.8   3661(48)    1634
      2614.4   3397(46)    1635
      2616.0   3118(44)    1636
      2617.6   2861(42)    1637
      2619.2   2585(40)    1638
      2620.8   2393(39)    1639
      2622.4   2218(37)    1640
      2624.0   2113(36)    1641
      2625.6   1921(35)    1642
      2627.2   1851(34)    1643
      2628.8   1772(33)    1644
      2630.4   1724(33)    1645
      2632.0   1643(32)    1646
      2633.6   1581(31)    1647
      2635.2   1559(31)    1648
      2636.8   1541(31)    1649
      2638.4   1498(31)    1650
      2640.0   1502(31)    1651
      2641.6   1470(30)    1652
      2643.2   1442(30)    1653
      2644.8   1442(30)    1654
      2646.4   1484(30)    1655
      2648.0   1484(30)    1656
      2649.6   1484(30)    1657
      2651.2   1504(31)    1658
      2652.8   1535(31)    1659
      2654.4   1541(31)    1660
      2656.0   1579(31)    1661
      2657.6   1546(31)    1662
      2659.2   1475(30)    1663
      2660.8   1414(30)    1664
      2662.4   1384(29)    1665
      2664.0   1421(30)    1666
      2665.6   1377(29)    1667
      2667.2   1336(29)    1668
      2668.8   1339(29)    1669
      2670.4   1321(29)    1670
      2672.0   1289(28)    1671
      2673.6   1274(28)    1672
      2675.2   1292(28)    1673
      2676.8   1228(28)    1674
      2678.4   1214(28)    1675
      2680.0   1236(28)    1676
      2681.6   1199(27)    1677
      2683.2   1203(27)    1678
      2684.8   1216(28)    1679
      2686.4   1212(28)    1680
      2688.0   1205(27)    1681
      2689.6   1206(27)    1682
      2691.2   1150(27)    1683
      2692.8   1143(27)    1684
      2694.4   1161(27)    1685
      2696.0   1148(27)    1686
      2697.6   1144(27)    1687
      2699.2   1177(27)    1688
      2700.8   1202(27)    1689
      2702.4   1203(27)    1690
      2704.0   1216(28)    1691
      2705.6   1221(28)    1692
      2707.2   1244(28)    1693
      2708.8   1244(28)    1694
      2710.4   1303(29)    1695
      2712.0   1374(29)    1696
      2713.6   1453(30)    1697
      2715.2   1547(31)    1698
      2716.8   1669(32)    1699
      2718.4   1785(33)    1700
      2720.0   1836(34)    1701
      2721.6   1892(34)    1702
      2723.2   1957(35)    1703
      2724.8   1976(35)    1704
      2726.4   2026(36)    1705
      2728.0   1998(35)    1706
      2729.6   1915(35)    1707
      2731.2   1903(34)    1708
      2732.8   1857(34)    1709
      2734.4   1823(34)    1710
      2736.0   1872(34)    1711
      2737.6   1749(33)    1712
      2739.2   1693(33)    1713
      2740.8   1714(33)    1714
      2742.4   1676(32)    1715
      2744.0   1653(32)    1716
      2745.6   1634(32)    1717
      2747.2   1564(31)    1718
      2748.8   1516(31)    1719
      2750.4   1444(30)    1720
      2752.0   1434(30)    1721
      2753.6   1389(29)    1722
      2755.2   1384(29)    1723
      2756.8   1357(29)    1724
      2758.4   1278(28)    1725
      2760.0   1234(28)    1726
      2761.6   1248(28)    1727
      2763.2   1239(28)    1728
      2764.8   1246(28)    1729
      2766.4   1173(27)    1730
      2768.0   1175(27)    1731
      2769.6   1172(27)    1732
      2771.2   1137(27)    1733
      2772.8   1149(27)    1734
      2774.4   1145(27)    1735
      2776.0   1109(26)    1736
      2777.6   1149(27)    1737
      2779.2   1150(27)    1738
      2780.8   1101(26)    1739
      2782.4   1151(27)    1740
      2784.0   1166(27)    1741
      2785.6   1239(28)    1742
      2787.2   1252(28)    1743
      2788.8   1267(28)    1744
      2790.4   1295(28)    1745
      2792.0   1395(30)    1746
      2793.6   1431(30)    1747
      2795.2   1471(30)    1748
      2796.8   1530(31)    1749
      2798.4   1573(31)    1750
      2800.0   1528(31)    1751
      2801.6   1504(31)    1752
      2803.2   1487(30)    1753
      2804.8   1473(30)    1754
      2806.4   1419(30)    1755
      2808.0   1389(29)    1756
      2809.6   1293(28)    1757
      2811.2   1299(28)    1758
      2812.8   1286(28)    1759
      2814.4   1238(28)    1760
      2816.0   1235(28)    1761
      2817.6   1188(27)    1762
      2819.2   1203(27)    1763
      2820.8   1189(27)    1764
      2822.4   1135(27)    1765
      2824.0   1121(26)    1766
      2825.6   1103(26)    1767
      2827.2   1112(26)    1768
      2828.8   1086(26)    1769
      2830.4   1093(26)    1770
      2832.0   1076(26)    1771
      2833.6   1084(26)    1772
      2835.2   1086(26)    1773
      2836.8   1076(26)    1774
      2838.4   1053(26)    1775
      2840.0   1054(26)    1776
      2841.6   1064(26)    1777
      2843.2   1069(26)    1778
      2844.8   1061(26)    1779
      2846.4   1049(26)    1780
      2848.0   1052(26)    1781
      2849.6   1056(26)    1782
      2851.2   1066(26)    1783
      2852.8   1085(26)    1784
      2854.4   1087(26)    1785
      2856.0   1108(26)    1786
      2857.6   1106(26)    1787
      2859.2   1081(26)    1788
      2860.8   1058(26)    1789
      2862.4   1033(25)    1790
      2864.0   1016(25)    1791
      2865.6   1014(25)    1792
      2867.2   1047(26)    1793
      2868.8   1039(25)    1794
      2870.4   1021(25)    1795
      2872.0   1041(26)    1796
      2873.6   1016(25)    1797
      2875.2   1005(25)    1798
      2876.8   1048(26)    1799
      2878.4   1049(26)    1800
      2880.0   1028(25)    1801
      2881.6   1061(26)    1802
      2883.2   1068(26)    1803
      2884.8   1036(25)    1804
      2886.4   1048(26)    1805
      2888.0   1088(26)    1806
      2889.6   1073(26)    1807
      2891.2   1083(26)    1808
      2892.8   1128(27)    1809
      2894.4   1156(27)    1810
      2896.0   1156(27)    1811
      2897.6   1124(27)    1812
      2899.2   1186(27)    1813
      2900.8   1223(28)    1814
      2902.4   1196(27)    1815
      2904.0   1198(27)    1816
      2905.6   1193(27)    1817
      2907.2   1139(27)    1818
      2908.8   1155(27)    1819
      2910.4   1154(27)    1820
      2912.0   1174(27)    1821
      2913.6   1171(27)    1822
      2915.2   1164(27)    1823
      2916.8   1129(27)    1824
      2918.4   1126(27)    1825
      2920.0   1136(27)    1826
      2921.6   1108(26)    1827
      2923.2   1078(26)    1828
      2924.8   1083(26)    1829
      2926.4   1083(26)    1830
      2928.0   1099(26)    1831
      2929.6   1126(27)    1832
      2931.2   1102(26)    1833
      2932.8   1102(26)    1834
      2934.4   1125(27)    1835
      2936.0   1124(27)    1836
      2937.6   1074(26)    1837
      2939.2   1069(26)    1838
      2940.8   1123(26)    1839
      2942.4   1213(28)    1840
      2944.0   1156(27)    1841
      2945.6   1229(28)    1842
      2947.2   1371(29)    1843
      2948.8   1430(30)    1844
      2950.4   1606(32)    1845
      2952.0   1853(34)    1846
      2953.6   1987(35)    1847
      2955.2   2344(38)    1848
      2956.8   2637(41)    1849
      2958.4   2896(43)    1850
      2960.0   3209(45)    1851
      2961.6   3501(47)    1852
      2963.2   3651(48)    1853
      2964.8   3791(49)    1854
      2966.4   3856(49)    1855
      2968.0   3838(49)    1856
      2969.6   3793(49)    1857
      2971.2   3754(48)    1858
      2972.8   3524(47)    1859
      2974.4   3359(46)    1860
      2976.0   3099(44)    1861
      2977.6   2916(43)    1862
      2979.2   2649(41)    1863
      2980.8   2475(39)    1864
      2982.4   2301(38)    1865
      2984.0   2158(37)    1866
      2985.6   2052(36)    1867
      2987.2   1923(35)    1868
      2988.8   1789(33)    1869
      2990.4   1723(33)    1870
      2992.0   1669(32)    1871
      2993.6   1579(31)    1872
      2995.2   1475(30)    1873
      2996.8   1438(30)    1874
      2998.4   1375(29)    1875
      3000.0   1341(29)    1876
      3001.6   1355(29)    1877
      3003.2   1354(29)    1878
      3004.8   1256(28)    1879
      3006.4   1225(28)    1880
      3008.0   1226(28)    1881
      3009.6   1186(27)    1882
      3011.2   1178(27)    1883
      3012.8   1141(27)    1884
      3014.4   1162(27)    1885
      3016.0   1175(27)    1886
      3017.6   1124(27)    1887
      3019.2   1076(26)    1888
      3020.8   1110(26)    1889
      3022.4   1114(26)    1890
      3024.0   1059(26)    1891
      3025.6   1040(25)    1892
      3027.2   1051(26)    1893
      3028.8   1069(26)    1894
      3030.4   1036(25)    1895
      3032.0   1048(26)    1896
      3033.6   1047(26)    1897
      3035.2   1076(26)    1898
      3036.8   1069(26)    1899
      3038.4   1094(26)    1900
      3040.0   1046(26)    1901
      3041.6   1030(25)    1902
      3043.2   1056(26)    1903
      3044.8   1034(25)    1904
      3046.4   1038(25)    1905
      3048.0   1007(25)    1906
      3049.6   1050(26)    1907
      3051.2   1035(25)    1908
      3052.8   1031(25)    1909
      3054.4   1026(25)    1910
      3056.0   991(25)    1911
      3057.6   1021(25)    1912
      3059.2   1026(25)    1913
      3060.8   1031(25)    1914
      3062.4   1058(26)    1915
      3064.0   1042(26)    1916
      3065.6   1034(25)    1917
      3067.2   1004(25)    1918
      3068.8   1055(26)    1919
      3070.4   1088(26)    1920
      3072.0   1054(26)    1921
      3073.6   1081(26)    1922
      3075.2   1110(26)    1923
      3076.8   1132(27)    1924
      3078.4   1179(27)    1925
      3080.0   1190(27)    1926
      3081.6   1293(28)    1927
      3083.2   1321(29)    1928
      3084.8   1412(30)    1929
      3086.4   1486(30)    1930
      3088.0   1501(31)    1931
      3089.6   1577(31)    1932
      3091.2   1639(32)    1933
      3092.8   1616(32)    1934
      3094.4   1646(32)    1935
      3096.0   1631(32)    1936
      3097.6   1607(32)    1937
      3099.2   1538(31)    1938
      3100.8   1486(30)    1939
      3102.4   1398(30)    1940
      3104.0   1355(29)    1941
      3105.6   1345(29)    1942
      3107.2   1316(29)    1943
      3108.8   1270(28)    1944
      3110.4   1249(28)    1945
      3112.0   1218(28)    1946
      3113.6   1185(27)    1947
      3115.2   1184(27)    1948
      3116.8   1213(28)    1949
      3118.4   1155(27)    1950
      3120.0   1179(27)    1951
      3121.6   1193(27)    1952
      3123.2   1228(28)    1953
      3124.8   1305(29)    1954
      3126.4   1379(29)    1955
      3128.0   1474(30)    1956
      3129.6   1530(31)    1957
      3131.2   1721(33)    1958
      3132.8   1965(35)    1959
      3134.4   2163(37)    1960
      3136.0   2419(39)    1961
      3137.6   2683(41)    1962
      3139.2   2883(42)    1963
      3140.8   3140(44)    1964
      3142.4   3236(45)    1965
      3144.0   3365(46)    1966
      3145.6   3429(46)    1967
      3147.2   3535(47)    1968
      3148.8   3432(46)    1969
      3150.4   3408(46)    1970
      3152.0   3310(45)    1971
      3153.6   3166(44)    1972
      3155.2   2936(43)    1973
      3156.8   2846(42)    1974
      3158.4   2744(41)    1975
      3160.0   2574(40)    1976
      3161.6   2473(39)    1977
      3163.2   2460(39)    1978
      3164.8   2436(39)    1979
      3166.4   2400(39)    1980
      3168.0   2373(39)    1981
      3169.6   2480(39)    1982
      3171.2   2453(39)    1983
      3172.8   2361(38)    1984
      3174.4   2315(38)    1985
      3176.0   2256(38)    1986
      3177.6   2203(37)    1987
      3179.2   2124(36)    1988
      3180.8   2014(35)    1989
      3182.4   1917(35)    1990
      3184.0   1775(33)    1991
      3185.6   1737(33)    1992
      3187.2   1663(32)    1993
      3188.8   1512(31)    1994
      3190.4   1455(30)    1995
      3192.0   1431(30)    1996
      3193.6   1364(29)    1997
      3195.2   1312(29)    1998
      3196.8   1271(28)    1999
      3198.4   1264(28)    2000
      3200.0   1270(28)    2001
      3201.6   1161(27)    2002
      3203.2   1153(27)    2003
      3204.8   1122(26)    2004
      3206.4   1078(26)    2005
      3208.0   1091(26)    2006
      3209.6   1091(26)    2007
      3211.2   1020(25)    2008
      3212.8   1063(26)    2009
      3214.4   1023(25)    2010
      3216.0   1043(26)    2011
      3217.6   1046(26)    2012
      3219.2   1026(25)    2013
      3220.8   996(25)    2014
      3222.4   966(25)    2015
      3224.0   964(25)    2016
      3225.6   1024(25)    2017
      3227.2   1001(25)    2018
      3228.8   967(25)    2019
      3230.4   950(24)    2020
      3232.0   964(25)    2021
      3233.6   975(25)    2022
      3235.2   948(24)    2023
      3236.8   934(24)    2024
      3238.4   940(24)    2025
      3240.0   961(25)    2026
      3241.6   955(24)    2027
      3243.2   938(24)    2028
      3244.8   949(24)    2029
      3246.4   935(24)    2030
      3248.0   941(24)    2031
      3249.6   942(24)    2032
      3251.2   926(24)    2033
      3252.8   954(24)    2034
      3254.4   929(24)    2035
      3256.0   940(24)    2036
      3257.6   907(24)    2037
      3259.2   957(24)    2038
      3260.8   933(24)    2039
      3262.4   891(24)    2040
      3264.0   941(24)    2041
      3265.6   910(24)    2042
      3267.2   884(24)    2043
      3268.8   876(23)    2044
      3270.4   871(23)    2045
      3272.0   881(23)    2046
      3273.6   886(24)    2047
      3275.2   892(24)    2048
      3276.8   879(23)    2049
      3278.4   890(24)    2050
      3280.0   916(24)    2051
      3281.6   959(24)    2052
      3283.2   881(23)    2053
      3284.8   906(24)    2054
      3286.4   909(24)    2055
      3288.0   891(24)    2056
      3289.6   903(24)    2057
      3291.2   878(23)    2058
      3292.8   859(23)    2059
      3294.4   879(23)    2060
      3296.0   885(24)    2061
      3297.6   886(24)    2062
      3299.2   903(24)    2063
      3300.8   884(24)    2064
      3302.4   864(23)    2065
      3304.0   911(24)    2066
      3305.6   920(24)    2067
      3307.2   969(25)    2068
      3308.8   976(25)    2069
      3310.4   990(25)    2070
      3312.0   1021(25)    2071
      3313.6   1040(25)    2072
      3315.2   1083(26)    2073
      3316.8   1171(27)    2074
      3318.4   1195(27)    2075
      3320.0   1269(28)    2076
      3321.6   1291(28)    2077
      3323.2   1325(29)    2078
      3324.8   1333(29)    2079
      3326.4   1366(29)    2080
      3328.0   1335(29)    2081
      3329.6   1335(29)    2082
      3331.2   1336(29)    2083
      3332.8   1266(28)    2084
      3334.4   1214(28)    2085
      3336.0   1180(27)    2086
      3337.6   1153(27)    2087
      3339.2   1128(27)    2088
      3340.8   1084(26)    2089
      3342.4   1025(25)    2090
      3344.0   1063(26)    2091
      3345.6   1028(25)    2092
      3347.2   991(25)    2093
      3348.8   1004(25)    2094
      3350.4   963(25)    2095
      3352.0   928(24)    2096
      3353.6   925(24)    2097
      3355.2   926(24)    2098
      3356.8   902(24)    2099
      3358.4   946(24)    2100
      3360.0   908(24)    2101
      3361.6   880(23)    2102
      3363.2   907(24)    2103
      3364.8   896(24)    2104
      3366.4   904(24)    2105
      3368.0   868(23)    2106
      3369.6   880(23)    2107
      3371.2   893(24)    2108
      3372.8   913(24)    2109
      3374.4   892(24)    2110
      3376.0   864(23)    2111
      3377.6   871(23)    2112
      3379.2   886(24)    2113
      3380.8   874(23)    2114
      3382.4   873(23)    2115
      3384.0   853(23)    2116
      3385.6   866(23)    2117
      3387.2   893(24)    2118
      3388.8   877(23)    2119
      3390.4   886(24)    2120
      3392.0   866(23)    2121
      3393.6   856(23)    2122
      3395.2   851(23)    2123
      3396.8   884(24)    2124
      3398.4   906(24)    2125
      3400.0   896(24)    2126
      3401.6   854(23)    2127
      3403.2   876(23)    2128
      3404.8   906(24)    2129
      3406.4   874(23)    2130
      3408.0   878(23)    2131
      3409.6   886(24)    2132
      3411.2   904(24)    2133
      3412.8   949(24)    2134
      3414.4   984(25)    2135
      3416.0   1016(25)    2136
      3417.6   1011(25)    2137
      3419.2   1104(26)    2138
      3420.8   1153(27)    2139
      3422.4   1190(27)    2140
      3424.0   1280(28)    2141
      3425.6   1396(30)    2142
      3427.2   1568(31)    2143
      3428.8   1734(33)    2144
      3430.4   1869(34)    2145
      3432.0   2064(36)    2146
      3433.6   2329(38)    2147
      3435.2   2608(40)    2148
      3436.8   2890(43)    2149
      3438.4   3117(44)    2150
      3440.0   3294(45)    2151
      3441.6   3475(47)    2152
      3443.2   3623(48)    2153
      3444.8   3762(48)    2154
      3446.4   3765(49)    2155
      3448.0   3802(49)    2156
      3449.6   3829(49)    2157
      3451.2   3697(48)    2158
      3452.8   3535(47)    2159
      3454.4   3394(46)    2160
      3456.0   3176(45)    2161
      3457.6   3008(43)    2162
      3459.2   2787(42)    2163
      3460.8   2581(40)    2164
      3462.4   2444(39)    2165
      3464.0   2218(37)    2166
      3465.6   2068(36)    2167
      3467.2   1953(35)    2168
      3468.8   1868(34)    2169
      3470.4   1752(33)    2170
      3472.0   1661(32)    2171
      3473.6   1560(31)    2172
      3475.2   1474(30)    2173
      3476.8   1394(30)    2174
      3478.4   1337(29)    2175
      3480.0   1308(29)    2176
      3481.6   1308(29)    2177
      3483.2   1237(28)    2178
      3484.8   1216(28)    2179
      3486.4   1119(26)    2180
      3488.0   1067(26)    2181
      3489.6   1073(26)    2182
      3491.2   1076(26)    2183
      3492.8   1062(26)    2184
      3494.4   1015(25)    2185
      3496.0   1006(25)    2186
      3497.6   966(25)    2187
      3499.2   975(25)    2188
      3500.8   959(24)    2189
      3502.4   939(24)    2190
      3504.0   953(24)    2191
      3505.6   987(25)    2192
      3507.2   997(25)    2193
      3508.8   1000(25)    2194
      3510.4   1053(26)    2195
      3512.0   1118(26)    2196
      3513.6   1179(27)    2197
      3515.2   1296(28)    2198
      3516.8   1423(30)    2199
      3518.4   1572(31)    2200
      3520.0   1845(34)    2201
      3521.6   2058(36)    2202
      3523.2   2291(38)    2203
      3524.8   2594(40)    2204
      3526.4   2828(42)    2205
      3528.0   3045(44)    2206
      3529.6   3369(46)    2207
      3531.2   3621(48)    2208
      3532.8   3723(48)    2209
      3534.4   3763(48)    2210
      3536.0   3807(49)    2211
      3537.6   3819(49)    2212
      3539.2   3826(49)    2213
      3540.8   3738(48)    2214
      3542.4   3619(48)    2215
      3544.0   3391(46)    2216
      3545.6   3226(45)    2217
      3547.2   2985(43)    2218
      3548.8   2766(42)    2219
      3550.4   2608(40)    2220
      3552.0   2484(39)    2221
      3553.6   2304(38)    2222
      3555.2   2130(36)    2223
      3556.8   1979(35)    2224
      3558.4   1884(34)    2225
      3560.0   1716(33)    2226
      3561.6   1604(32)    2227
      3563.2   1526(31)    2228
      3564.8   1454(30)    2229
      3566.4   1351(29)    2230
      3568.0   1335(29)    2231
      3569.6   1255(28)    2232
      3571.2   1178(27)    2233
      3572.8   1114(26)    2234
      3574.4   1095(26)    2235
      3576.0   1076(26)    2236
      3577.6   1073(26)    2237
      3579.2   1014(25)    2238
      3580.8   959(24)    2239
      3582.4   958(24)    2240
      3584.0   908(24)    2241
      3585.6   876(23)    2242
      3587.2   895(24)    2243
      3588.8   876(23)    2244
      3590.4   861(23)    2245
      3592.0   842(23)    2246
      3593.6   832(23)    2247
      3595.2   810(23)    2248
      3596.8   790(22)    2249
      3598.4   797(22)    2250
      3600.0   813(23)    2251
      3601.6   813(23)    2252
      3603.2   833(23)    2253
      3604.8   858(23)    2254
      3606.4   808(22)    2255
      3608.0   876(23)    2256
      3609.6   911(24)    2257
      3611.2   962(25)    2258
      3612.8   943(24)    2259
      3614.4   961(25)    2260
      3616.0   989(25)    2261
      3617.6   1019(25)    2262
      3619.2   1026(25)    2263
      3620.8   1020(25)    2264
      3622.4   1003(25)    2265
      3624.0   1000(25)    2266
      3625.6   993(25)    2267
      3627.2   1017(25)    2268
      3628.8   1013(25)    2269
      3630.4   968(25)    2270
      3632.0   958(24)    2271
      3633.6   894(24)    2272
      3635.2   876(23)    2273
      3636.8   872(23)    2274
      3638.4   853(23)    2275
      3640.0   837(23)    2276
      3641.6   828(23)    2277
      3643.2   813(23)    2278
      3644.8   786(22)    2279
      3646.4   771(22)    2280
      3648.0   791(22)    2281
      3649.6   781(22)    2282
      3651.2   768(22)    2283
      3652.8   788(22)    2284
      3654.4   739(21)    2285
      3656.0   713(21)    2286
      3657.6   721(21)    2287
      3659.2   726(21)    2288
      3660.8   720(21)    2289
      3662.4   691(21)    2290
      3664.0   703(21)    2291
      3665.6   724(21)    2292
      3667.2   725(21)    2293
      3668.8   718(21)    2294
      3670.4   686(21)    2295
      3672.0   683(21)    2296
      3673.6   701(21)    2297
      3675.2   673(21)    2298
      3676.8   665(20)    2299
      3678.4   669(20)    2300
      3680.0   700(21)    2301
      3681.6   670(20)    2302
      3683.2   678(21)    2303
      3684.8   679(21)    2304
      3686.4   697(21)    2305
      3688.0   684(21)    2306
      3689.6   689(21)    2307
      3691.2   667(20)    2308
      3692.8   688(21)    2309
      3694.4   665(20)    2310
      3696.0   679(21)    2311
      3697.6   673(21)    2312
      3699.2   663(20)    2313
      3700.8   681(21)    2314
      3702.4   669(20)    2315
      3704.0   666(20)    2316
      3705.6   664(20)    2317
      3707.2   666(20)    2318
      3708.8   675(21)    2319
      3710.4   693(21)    2320
      3712.0   686(21)    2321
      3713.6   664(20)    2322
      3715.2   657(20)    2323
      3716.8   641(20)    2324
      3718.4   651(20)    2325
      3720.0   696(21)    2326
      3721.6   698(21)    2327
      3723.2   659(20)    2328
      3724.8   645(20)    2329
      3726.4   669(20)    2330
      3728.0   673(21)    2331
      3729.6   658(20)    2332
      3731.2   663(20)    2333
      3732.8   643(20)    2334
      3734.4   698(21)    2335
      3736.0   735(21)    2336
      3737.6   759(22)    2337
      3739.2   824(23)    2338
      3740.8   843(23)    2339
      3742.4   902(24)    2340
      3744.0   940(24)    2341
      3745.6   1004(25)    2342
      3747.2   1069(26)    2343
      3748.8   1116(26)    2344
      3750.4   1134(27)    2345
      3752.0   1145(27)    2346
      3753.6   1167(27)    2347
      3755.2   1198(27)    2348
      3756.8   1200(27)    2349
      3758.4   1159(27)    2350
      3760.0   1201(27)    2351
      3761.6   1163(27)    2352
      3763.2   1136(27)    2353
      3764.8   1073(26)    2354
      3766.4   1076(26)    2355
      3768.0   1028(25)    2356
      3769.6   953(24)    2357
      3771.2   939(24)    2358
      3772.8   851(23)    2359
      3774.4   828(23)    2360
      3776.0   817(23)    2361
      3777.6   801(22)    2362
      3779.2   812(23)    2363
      3780.8   755(22)    2364
      3782.4   750(22)    2365
      3784.0   698(21)    2366
      3785.6   706(21)    2367
      3787.2   711(21)    2368
      3788.8   706(21)    2369
      3790.4   683(21)    2370
      3792.0   708(21)    2371
      3793.6   682(21)    2372
      3795.2   665(20)    2373
      3796.8   637(20)    2374
      3798.4   649(20)    2375
      3800.0   633(20)    2376
      3801.6   643(20)    2377
      3803.2   651(20)    2378
      3804.8   632(20)    2379
      3806.4   643(20)    2380
      3808.0   637(20)    2381
      3809.6   632(20)    2382
      3811.2   634(20)    2383
      3812.8   656(20)    2384
      3814.4   640(20)    2385
      3816.0   654(20)    2386
      3817.6   640(20)    2387
      3819.2   629(20)    2388
      3820.8   605(19)    2389
      3822.4   643(20)    2390
      3824.0   657(20)    2391
      3825.6   692(21)    2392
      3827.2   697(21)    2393
      3828.8   688(21)    2394
      3830.4   738(21)    2395
      3832.0   746(22)    2396
      3833.6   803(22)    2397
      3835.2   856(23)    2398
      3836.8   906(24)    2399
      3838.4   951(24)    2400
      3840.0   1064(26)    2401
      3841.6   1089(26)    2402
      3843.2   1155(27)    2403
      3844.8   1213(28)    2404
      3846.4   1246(28)    2405
      3848.0   1306(29)    2406
      3849.6   1325(29)    2407
      3851.2   1328(29)    2408
      3852.8   1353(29)    2409
      3854.4   1410(30)    2410
      3856.0   1388(29)    2411
      3857.6   1337(29)    2412
      3859.2   1332(29)    2413
      3860.8   1296(28)    2414
      3862.4   1257(28)    2415
      3864.0   1248(28)    2416
      3865.6   1218(28)    2417
      3867.2   1157(27)    2418
      3868.8   1090(26)    2419
      3870.4   1032(25)    2420
      3872.0   978(25)    2421
      3873.6   917(24)    2422
      3875.2   888(24)    2423
      3876.8   856(23)    2424
      3878.4   829(23)    2425
      3880.0   812(23)    2426
      3881.6   793(22)    2427
      3883.2   748(22)    2428
      3884.8   731(21)    2429
      3886.4   722(21)    2430
      3888.0   722(21)    2431
      3889.6   689(21)    2432
      3891.2   667(20)    2433
      3892.8   663(20)    2434
      3894.4   671(20)    2435
      3896.0   667(20)    2436
      3897.6   623(20)    2437
      3899.2   634(20)    2438
      3900.8   621(20)    2439
      3902.4   606(19)    2440
      3904.0   604(19)    2441
      3905.6   585(19)    2442
      3907.2   580(19)    2443
      3908.8   579(19)    2444
      3910.4   564(19)    2445
      3912.0   566(19)    2446
      3913.6   570(19)    2447
      3915.2   572(19)    2448
      3916.8   529(18)    2449
      3918.4   575(19)    2450
      3920.0   573(19)    2451
      3921.6   554(19)    2452
      3923.2   544(18)    2453
      3924.8   574(19)    2454
      3926.4   549(19)    2455
      3928.0   550(19)    2456
      3929.6   554(19)    2457
      3931.2   544(18)    2458
      3932.8   529(18)    2459
      3934.4   533(18)    2460
      3936.0   527(18)    2461
      3937.6   521(18)    2462
      3939.2   529(18)    2463
      3940.8   552(19)    2464
      3942.4   541(18)    2465
      3944.0   545(18)    2466
      3945.6   535(18)    2467
      3947.2   531(18)    2468
      3948.8   558(19)    2469
      3950.4   558(19)    2470
      3952.0   515(18)    2471
      3953.6   524(18)    2472
      3955.2   542(18)    2473
      3956.8   533(18)    2474
      3958.4   534(18)    2475
      3960.0   536(18)    2476
      3961.6   539(18)    2477
      3963.2   529(18)    2478
      3964.8   505(18)    2479
      3966.4   524(18)    2480
      3968.0   524(18)    2481
      3969.6   511(18)    2482
      3971.2   545(18)    2483
      3972.8   547(18)    2484
      3974.4   523(18)    2485
      3976.0   519(18)    2486
      3977.6   528(18)    2487
      3979.2   538(18)    2488
      3980.8   524(18)    2489
      3982.4   525(18)    2490
      3984.0   529(18)    2491
      3985.6   529(18)    2492
      3987.2   526(18)    2493
      3988.8   542(18)    2494
      3990.4   557(19)    2495
      3992.0   556(19)    2496
      3993.6   610(20)    2497
      3995.2   626(20)    2498
      3996.8   691(21)    2499
      3998.4   733(21)    2500
      4000.0   779(22)    2501
      4001.6   848(23)    2502
      4003.2   908(24)    2503
      4004.8   944(24)    2504
      4006.4   971(25)    2505
      4008.0   1022(25)    2506
      4009.6   1026(25)    2507
      4011.2   1121(26)    2508
      4012.8   1121(26)    2509
      4014.4   1146(27)    2510
      4016.0   1133(27)    2511
      4017.6   1141(27)    2512
      4019.2   1099(26)    2513
      4020.8   1059(26)    2514
      4022.4   1027(25)    2515
      4024.0   1039(25)    2516
      4025.6   986(25)    2517
      4027.2   917(24)    2518
      4028.8   859(23)    2519
      4030.4   846(23)    2520
      4032.0   798(22)    2521
      4033.6   759(22)    2522
      4035.2   717(21)    2523
      4036.8   697(21)    2524
      4038.4   693(21)    2525
      4040.0   669(20)    2526
      4041.6   641(20)    2527
      4043.2   647(20)    2528
      4044.8   625(20)    2529
      4046.4   611(20)    2530
      4048.0   573(19)    2531
      4049.6   569(19)    2532
      4051.2   556(19)    2533
      4052.8   552(19)    2534
      4054.4   551(19)    2535
      4056.0   518(18)    2536
      4057.6   524(18)    2537
      4059.2   509(18)    2538
      4060.8   541(18)    2539
      4062.4   509(18)    2540
      4064.0   517(18)    2541
      4065.6   516(18)    2542
      4067.2   509(18)    2543
      4068.8   520(18)    2544
      4070.4   522(18)    2545
      4072.0   503(18)    2546
      4073.6   507(18)    2547
      4075.2   504(18)    2548
      4076.8   482(17)    2549
      4078.4   486(17)    2550
      4080.0   481(17)    2551
      4081.6   484(17)    2552
      4083.2   471(17)    2553
      4084.8   493(18)    2554
      4086.4   524(18)    2555
      4088.0   494(18)    2556
      4089.6   463(17)    2557
      4091.2   474(17)    2558
      4092.8   469(17)    2559
      4094.4   488(17)    2560
      4096.0   477(17)    2561
      4097.6   462(17)    2562
      4099.2   480(17)    2563
      4100.8   471(17)    2564
      4102.4   483(17)    2565
      4104.0   490(18)    2566
      4105.6   447(17)    2567
      4107.2   470(17)    2568
      4108.8   452(17)    2569
      4110.4   482(17)    2570
      4112.0   474(17)    2571
      4113.6   476(17)    2572
      4115.2   481(17)    2573
      4116.8   501(18)    2574
      4118.4   486(17)    2575
      4120.0   503(18)    2576
      4121.6   466(17)    2577
      4123.2   483(17)    2578
      4124.8   474(17)    2579
      4126.4   460(17)    2580
      4128.0   466(17)    2581
      4129.6   453(17)    2582
      4131.2   441(17)    2583
      4132.8   433(16)    2584
      4134.4   433(16)    2585
      4136.0   454(17)    2586
      4137.6   473(17)    2587
      4139.2   446(17)    2588
      4140.8   443(17)    2589
      4142.4   442(17)    2590
      4144.0   468(17)    2591
      4145.6   444(17)    2592
      4147.2   439(17)    2593
      4148.8   431(16)    2594
      4150.4   450(17)    2595
      4152.0   441(17)    2596
      4153.6   436(17)    2597
      4155.2   463(17)    2598
      4156.8   469(17)    2599
      4158.4   458(17)    2600
      4160.0   463(17)    2601
      4161.6   462(17)    2602
      4163.2   449(17)    2603
      4164.8   442(17)    2604
      4166.4   433(16)    2605
      4168.0   468(17)    2606
      4169.6   444(17)    2607
      4171.2   457(17)    2608
      4172.8   469(17)    2609
      4174.4   500(18)    2610
      4176.0   495(18)    2611
      4177.6   493(18)    2612
      4179.2   531(18)    2613
      4180.8   554(19)    2614
      4182.4   568(19)    2615
      4184.0   593(19)    2616
      4185.6   623(20)    2617
      4187.2   661(20)    2618
      4188.8   663(20)    2619
      4190.4   678(21)    2620
      4192.0   720(21)    2621
      4193.6   734(21)    2622
      4195.2   768(22)    2623
      4196.8   778(22)    2624
      4198.4   770(22)    2625
      4200.0   770(22)    2626
      4201.6   749(22)    2627
      4203.2   699(21)    2628
      4204.8   700(21)    2629
      4206.4   708(21)    2630
      4208.0   709(21)    2631
      4209.6   667(20)    2632
      4211.2   627(20)    2633
      4212.8   638(20)    2634
      4214.4   630(20)    2635
      4216.0   596(19)    2636
      4217.6   576(19)    2637
      4219.2   560(19)    2638
      4220.8   560(19)    2639
      4222.4   544(18)    2640
      4224.0   527(18)    2641
      4225.6   514(18)    2642
      4227.2   514(18)    2643
      4228.8   488(17)    2644
      4230.4   487(17)    2645
      4232.0   489(17)    2646
      4233.6   492(18)    2647
      4235.2   468(17)    2648
      4236.8   442(17)    2649
      4238.4   470(17)    2650
      4240.0   458(17)    2651
      4241.6   476(17)    2652
      4243.2   441(17)    2653
      4244.8   419(16)    2654
      4246.4   436(17)    2655
      4248.0   441(17)    2656
      4249.6   445(17)    2657
      4251.2   428(16)    2658
      4252.8   466(17)    2659
      4254.4   448(17)    2660
      4256.0   447(17)    2661
      4257.6   437(17)    2662
      4259.2   449(17)    2663
      4260.8   457(17)    2664
      4262.4   442(17)    2665
      4264.0   413(16)    2666
      4265.6   413(16)    2667
      4267.2   406(16)    2668
      4268.8   416(16)    2669
      4270.4   396(16)    2670
      4272.0   399(16)    2671
      4273.6   401(16)    2672
      4275.2   394(16)    2673
      4276.8   419(16)    2674
      4278.4   426(16)    2675
      4280.0   396(16)    2676
      4281.6   393(16)    2677
      4283.2   396(16)    2678
      4284.8   402(16)    2679
      4286.4   390(16)    2680
      4288.0   383(15)    2681
      4289.6   401(16)    2682
      4291.2   393(16)    2683
      4292.8   414(16)    2684
      4294.4   392(16)    2685
      4296.0   416(16)    2686
      4297.6   425(16)    2687
      4299.2   413(16)    2688
      4300.8   405(16)    2689
      4302.4   413(16)    2690
      4304.0   385(16)    2691
      4305.6   396(16)    2692
      4307.2   409(16)    2693
      4308.8   416(16)    2694
      4310.4   401(16)    2695
      4312.0   411(16)    2696
      4313.6   403(16)    2697
      4315.2   392(16)    2698
      4316.8   399(16)    2699
      4318.4   399(16)    2700
      4320.0   397(16)    2701
      4321.6   378(15)    2702
      4323.2   392(16)    2703
      4324.8   414(16)    2704
      4326.4   392(16)    2705
      4328.0   401(16)    2706
      4329.6   385(16)    2707
      4331.2   405(16)    2708
      4332.8   397(16)    2709
      4334.4   398(16)    2710
      4336.0   429(16)    2711
      4337.6   398(16)    2712
      4339.2   388(16)    2713
      4340.8   384(15)    2714
      4342.4   393(16)    2715
      4344.0   395(16)    2716
      4345.6   394(16)    2717
      4347.2   421(16)    2718
      4348.8   393(16)    2719
      4350.4   393(16)    2720
      4352.0   381(15)    2721
      4353.6   391(16)    2722
      4355.2   398(16)    2723
      4356.8   379(15)    2724
      4358.4   416(16)    2725
      4360.0   412(16)    2726
      4361.6   388(16)    2727
      4363.2   393(16)    2728
      4364.8   398(16)    2729
      4366.4   433(16)    2730
      4368.0   416(16)    2731
      4369.6   409(16)    2732
      4371.2   413(16)    2733
      4372.8   391(16)    2734
      4374.4   396(16)    2735
      4376.0   409(16)    2736
      4377.6   387(16)    2737
      4379.2   422(16)    2738
      4380.8   415(16)    2739
      4382.4   377(15)    2740
      4384.0   376(15)    2741
      4385.6   400(16)    2742
      4387.2   392(16)    2743
      4388.8   399(16)    2744
      4390.4   395(16)    2745
      4392.0   386(16)    2746
      4393.6   385(16)    2747
      4395.2   378(15)    2748
      4396.8   386(16)    2749
      4398.4   369(15)    2750
      4400.0   371(15)    2751
      4401.6   394(16)    2752
      4403.2   406(16)    2753
      4404.8   407(16)    2754
      4406.4   379(15)    2755
      4408.0   399(16)    2756
      4409.6   414(16)    2757
      4411.2   398(16)    2758
      4412.8   399(16)    2759
      4414.4   413(16)    2760
      4416.0   413(16)    2761
      4417.6   453(17)    2762
      4419.2   483(17)    2763
      4420.8   544(18)    2764
      4422.4   534(18)    2765
      4424.0   574(19)    2766
      4425.6   626(20)    2767
      4427.2   708(21)    2768
      4428.8   790(22)    2769
      4430.4   869(23)    2770
      4432.0   944(24)    2771
      4433.6   1032(25)    2772
      4435.2   1126(27)    2773
      4436.8   1221(28)    2774
      4438.4   1326(29)    2775
      4440.0   1459(30)    2776
      4441.6   1471(30)    2777
      4443.2   1513(31)    2778
      4444.8   1559(31)    2779
      4446.4   1603(32)    2780
      4448.0   1676(32)    2781
      4449.6   1608(32)    2782
      4451.2   1649(32)    2783
      4452.8   1591(32)    2784
      4454.4   1557(31)    2785
      4456.0   1476(30)    2786
      4457.6   1488(30)    2787
      4459.2   1404(30)    2788
      4460.8   1338(29)    2789
      4462.4   1291(28)    2790
      4464.0   1211(28)    2791
      4465.6   1146(27)    2792
      4467.2   1054(26)    2793
      4468.8   996(25)    2794
      4470.4   926(24)    2795
      4472.0   839(23)    2796
      4473.6   842(23)    2797
      4475.2   782(22)    2798
      4476.8   716(21)    2799
      4478.4   721(21)    2800
      4480.0   679(21)    2801
      4481.6   630(20)    2802
      4483.2   624(20)    2803
      4484.8   621(20)    2804
      4486.4   583(19)    2805
      4488.0   554(19)    2806
      4489.6   544(18)    2807
      4491.2   509(18)    2808
      4492.8   476(17)    2809
      4494.4   479(17)    2810
      4496.0   478(17)    2811
      4497.6   479(17)    2812
      4499.2   454(17)    2813
      4500.8   453(17)    2814
      4502.4   443(17)    2815
      4504.0   445(17)    2816
      4505.6   430(16)    2817
      4507.2   444(17)    2818
      4508.8   422(16)    2819
      4510.4   411(16)    2820
      4512.0   413(16)    2821
      4513.6   391(16)    2822
      4515.2   423(16)    2823
      4516.8   396(16)    2824
      4518.4   376(15)    2825
      4520.0   399(16)    2826
      4521.6   408(16)    2827
      4523.2   381(15)    2828
      4524.8   363(15)    2829
      4526.4   411(16)    2830
      4528.0   390(16)    2831
      4529.6   380(15)    2832
      4531.2   410(16)    2833
      4532.8   376(15)    2834
      4534.4   397(16)    2835
      4536.0   387(16)    2836
      4537.6   387(16)    2837
      4539.2   413(16)    2838
      4540.8   400(16)    2839
      4542.4   395(16)    2840
      4544.0   418(16)    2841
      4545.6   449(17)    2842
      4547.2   456(17)    2843
      4548.8   483(17)    2844
      4550.4   535(18)    2845
      4552.0   556(19)    2846
      4553.6   564(19)    2847
      4555.2   583(19)    2848
      4556.8   664(20)    2849
      4558.4   654(20)    2850
      4560.0   711(21)    2851
      4561.6   698(21)    2852
      4563.2   748(22)    2853
      4564.8   811(23)    2854
      4566.4   818(23)    2855
      4568.0   818(23)    2856
      4569.6   861(23)    2857
      4571.2   829(23)    2858
      4572.8   843(23)    2859
      4574.4   809(22)    2860
      4576.0   798(22)    2861
      4577.6   774(22)    2862
      4579.2   741(22)    2863
      4580.8   749(22)    2864
      4582.4   711(21)    2865
      4584.0   713(21)    2866
      4585.6   670(20)    2867
      4587.2   652(20)    2868
      4588.8   619(20)    2869
      4590.4   606(19)    2870
      4592.0   573(19)    2871
      4593.6   571(19)    2872
      4595.2   575(19)    2873
      4596.8   532(18)    2874
      4598.4   534(18)    2875
      4600.0   519(18)    2876
      4601.6   499(18)    2877
      4603.2   481(17)    2878
      4604.8   524(18)    2879
      4606.4   527(18)    2880
      4608.0   541(18)    2881
      4609.6   523(18)    2882
      4611.2   554(19)    2883
      4612.8   657(20)    2884
      4614.4   653(20)    2885
      4616.0   742(22)    2886
      4617.6   864(23)    2887
      4619.2   947(24)    2888
      4620.8   1143(27)    2889
      4622.4   1263(28)    2890
      4624.0   1473(30)    2891
      4625.6   1673(32)    2892
      4627.2   1880(34)    2893
      4628.8   2093(36)    2894
      4630.4   2348(38)    2895
      4632.0   2573(40)    2896
      4633.6   2748(41)    2897
      4635.2   3053(44)    2898
      4636.8   3273(45)    2899
      4638.4   3458(46)    2900
      4640.0   3646(48)    2901
      4641.6   3764(49)    2902
      4643.2   3834(49)    2903
      4644.8   3999(50)    2904
      4646.4   3983(50)    2905
      4648.0   3984(50)    2906
      4649.6   3980(50)    2907
      4651.2   3868(49)    2908
      4652.8   3716(48)    2909
      4654.4   3566(47)    2910
      4656.0   3506(47)    2911
      4657.6   3399(46)    2912
      4659.2   3190(45)    2913
      4660.8   2913(43)    2914
      4662.4   2724(41)    2915
      4664.0   2523(40)    2916
      4665.6   2377(39)    2917
      4667.2   2173(37)    2918
      4668.8   2027(36)    2919
      4670.4   1847(34)    2920
      4672.0   1691(33)    2921
      4673.6   1592(32)    2922
      4675.2   1496(31)    2923
      4676.8   1395(30)    2924
      4678.4   1265(28)    2925
      4680.0   1171(27)    2926
      4681.6   1106(26)    2927
      4683.2   1016(25)    2928
      4684.8   972(25)    2929
      4686.4   908(24)    2930
      4688.0   857(23)    2931
      4689.6   778(22)    2932
      4691.2   761(22)    2933
      4692.8   718(21)    2934
      4694.4   673(21)    2935
      4696.0   635(20)    2936
      4697.6   606(19)    2937
      4699.2   587(19)    2938
      4700.8   563(19)    2939
      4702.4   541(18)    2940
      4704.0   523(18)    2941
      4705.6   501(18)    2942
      4707.2   498(18)    2943
      4708.8   454(17)    2944
      4710.4   456(17)    2945
      4712.0   458(17)    2946
      4713.6   443(17)    2947
      4715.2   431(16)    2948
      4716.8   434(16)    2949
      4718.4   406(16)    2950
      4720.0   428(16)    2951
      4721.6   395(16)    2952
      4723.2   384(15)    2953
      4724.8   383(15)    2954
      4726.4   393(16)    2955
      4728.0   387(16)    2956
      4729.6   385(16)    2957
      4731.2   369(15)    2958
      4732.8   368(15)    2959
      4734.4   345(15)    2960
      4736.0   361(15)    2961
      4737.6   378(15)    2962
      4739.2   348(15)    2963
      4740.8   334(14)    2964
      4742.4   345(15)    2965
      4744.0   346(15)    2966
      4745.6   347(15)    2967
      4747.2   355(15)    2968
      4748.8   347(15)    2969
      4750.4   362(15)    2970
      4752.0   354(15)    2971
      4753.6   318(14)    2972
      4755.2   309(14)    2973
      4756.8   321(14)    2974
      4758.4   326(14)    2975
      4760.0   336(14)    2976
      4761.6   321(14)    2977
      4763.2   318(14)    2978
      4764.8   321(14)    2979
      4766.4   323(14)    2980
      4768.0   321(14)    2981
      4769.6   326(14)    2982
      4771.2   330(14)    2983
      4772.8   322(14)    2984
      4774.4   323(14)    2985
      4776.0   339(15)    2986
      4777.6   321(14)    2987
      4779.2   319(14)    2988
      4780.8   309(14)    2989
      4782.4   314(14)    2990
      4784.0   308(14)    2991
      4785.6   318(14)    2992
      4787.2   312(14)    2993
      4788.8   306(14)    2994
      4790.4   311(14)    2995
      4792.0   290(13)    2996
      4793.6   306(14)    2997
      4795.2   301(14)    2998
      4796.8   307(14)    2999
      4798.4   309(14)    3000
      4800.0   308(14)    3001
      4801.6   298(14)    3002
      4803.2   290(13)    3003
      4804.8   303(14)    3004
      4806.4   309(14)    3005
      4808.0   300(14)    3006
      4809.6   294(14)    3007
      4811.2   306(14)    3008
      4812.8   279(13)    3009
      4814.4   314(14)    3010
      4816.0   330(14)    3011
      4817.6   321(14)    3012
      4819.2   351(15)    3013
      4820.8   380(15)    3014
      4822.4   396(16)    3015
      4824.0   441(17)    3016
      4825.6   465(17)    3017
      4827.2   501(18)    3018
      4828.8   558(19)    3019
      4830.4   594(19)    3020
      4832.0   625(20)    3021
      4833.6   688(21)    3022
      4835.2   741(22)    3023
      4836.8   779(22)    3024
      4838.4   801(22)    3025
      4840.0   910(24)    3026
      4841.6   936(24)    3027
      4843.2   945(24)    3028
      4844.8   940(24)    3029
      4846.4   984(25)    3030
      4848.0   977(25)    3031
      4849.6   935(24)    3032
      4851.2   939(24)    3033
      4852.8   946(24)    3034
      4854.4   909(24)    3035
      4856.0   836(23)    3036
      4857.6   846(23)    3037
      4859.2   768(22)    3038
      4860.8   766(22)    3039
      4862.4   709(21)    3040
      4864.0   674(21)    3041
      4865.6   653(20)    3042
      4867.2   591(19)    3043
      4868.8   566(19)    3044
      4870.4   564(19)    3045
      4872.0   496(18)    3046
      4873.6   498(18)    3047
      4875.2   463(17)    3048
      4876.8   453(17)    3049
      4878.4   444(17)    3050
      4880.0   428(16)    3051
      4881.6   396(16)    3052
      4883.2   391(16)    3053
      4884.8   384(15)    3054
      4886.4   346(15)    3055
      4888.0   333(14)    3056
      4889.6   323(14)    3057
      4891.2   342(15)    3058
      4892.8   331(14)    3059
      4894.4   342(15)    3060
      4896.0   327(14)    3061
      4897.6   316(14)    3062
      4899.2   284(13)    3063
      4900.8   291(13)    3064
      4902.4   291(13)    3065
      4904.0   316(14)    3066
      4905.6   289(13)    3067
      4907.2   260(13)    3068
      4908.8   281(13)    3069
      4910.4   270(13)    3070
      4912.0   259(13)    3071
      4913.6   281(13)    3072
      4915.2   261(13)    3073
      4916.8   256(13)    3074
      4918.4   273(13)    3075
      4920.0   270(13)    3076
      4921.6   264(13)    3077
      4923.2   279(13)    3078
      4924.8   249(12)    3079
      4926.4   260(13)    3080
      4928.0   273(13)    3081
      4929.6   273(13)    3082
      4931.2   254(13)    3083
      4932.8   236(12)    3084
      4934.4   239(12)    3085
      4936.0   246(12)    3086
      4937.6   249(12)    3087
      4939.2   257(13)    3088
      4940.8   251(13)    3089
      4942.4   248(12)    3090
      4944.0   244(12)    3091
      4945.6   282(13)    3092
      4947.2   269(13)    3093
      4948.8   263(13)    3094
      4950.4   257(13)    3095
      4952.0   256(13)    3096
      4953.6   259(13)    3097
      4955.2   239(12)    3098
      4956.8   252(13)    3099
      4958.4   261(13)    3100
      4960.0   253(13)    3101
      4961.6   252(13)    3102
      4963.2   265(13)    3103
      4964.8   233(12)    3104
      4966.4   246(12)    3105
      4968.0   251(13)    3106
      4969.6   261(13)    3107
      4971.2   251(13)    3108
      4972.8   246(12)    3109
      4974.4   259(13)    3110
      4976.0   249(12)    3111
      4977.6   247(12)    3112
      4979.2   236(12)    3113
      4980.8   233(12)    3114
      4982.4   238(12)    3115
      4984.0   223(12)    3116
      4985.6   231(12)    3117
      4987.2   249(12)    3118
      4988.8   239(12)    3119
      4990.4   234(12)    3120
      4992.0   228(12)    3121
      4993.6   235(12)    3122
      4995.2   237(12)    3123
      4996.8   243(12)    3124
      4998.4   256(13)    3125
      5000.0   254(13)    3126
      5001.6   234(12)    3127
      5003.2   244(12)    3128
      5004.8   235(12)    3129
      5006.4   221(12)    3130
      5008.0   241(12)    3131
      5009.6   239(12)    3132
      5011.2   238(12)    3133
      5012.8   234(12)    3134
      5014.4   225(12)    3135
      5016.0   233(12)    3136
      5017.6   249(12)    3137
      5019.2   259(13)    3138
      5020.8   233(12)    3139
      5022.4   229(12)    3140
      5024.0   233(12)    3141
      5025.6   233(12)    3142
      5027.2   228(12)    3143
      5028.8   235(12)    3144
      5030.4   231(12)    3145
      5032.0   218(12)    3146
      5033.6   226(12)    3147
      5035.2   239(12)    3148
      5036.8   238(12)    3149
      5038.4   223(12)    3150
      5040.0   234(12)    3151
      5041.6   244(12)    3152
      5043.2   231(12)    3153
      5044.8   229(12)    3154
      5046.4   224(12)    3155
      5048.0   252(13)    3156
      5049.6   238(12)    3157
      5051.2   236(12)    3158
      5052.8   243(12)    3159
      5054.4   226(12)    3160
      5056.0   234(12)    3161
      5057.6   248(12)    3162
      5059.2   232(12)    3163
      5060.8   233(12)    3164
      5062.4   230(12)    3165
      5064.0   244(12)    3166
      5065.6   228(12)    3167
      5067.2   233(12)    3168
      5068.8   223(12)    3169
      5070.4   226(12)    3170
      5072.0   221(12)    3171
      5073.6   225(12)    3172
      5075.2   226(12)    3173
      5076.8   227(12)    3174
      5078.4   243(12)    3175
      5080.0   224(12)    3176
      5081.6   208(11)    3177
      5083.2   213(12)    3178
      5084.8   224(12)    3179
      5086.4   219(12)    3180
      5088.0   224(12)    3181
      5089.6   206(11)    3182
      5091.2   221(12)    3183
      5092.8   220(12)    3184
      5094.4   215(12)    3185
      5096.0   231(12)    3186
      5097.6   212(12)    3187
      5099.2   223(12)    3188
      5100.8   219(12)    3189
      5102.4   222(12)    3190
      5104.0   210(11)    3191
      5105.6   203(11)    3192
      5107.2   206(11)    3193
      5108.8   218(12)    3194
      5110.4   216(12)    3195
      5112.0   211(11)    3196
      5113.6   220(12)    3197
      5115.2   221(12)    3198
      5116.8   224(12)    3199
      5118.4   224(12)    3200
      5120.0   217(12)    3201
      5121.6   232(12)    3202
      5123.2   243(12)    3203
      5124.8   231(12)    3204
      5126.4   216(12)    3205
      5128.0   223(12)    3206
      5129.6   228(12)    3207
      5131.2   209(11)    3208
      5132.8   224(12)    3209
      5134.4   226(12)    3210
      5136.0   214(12)    3211
      5137.6   228(12)    3212
      5139.2   221(12)    3213
      5140.8   217(12)    3214
      5142.4   210(11)    3215
      5144.0   214(12)    3216
      5145.6   210(11)    3217
      5147.2   218(12)    3218
      5148.8   211(11)    3219
      5150.4   212(12)    3220
      5152.0   207(11)    3221
      5153.6   199(11)    3222
      5155.2   220(12)    3223
      5156.8   213(12)    3224
      5158.4   207(11)    3225
      5160.0   206(11)    3226
      5161.6   193(11)    3227
      5163.2   200(11)    3228
      5164.8   212(12)    3229
      5166.4   208(11)    3230
      5168.0   218(12)    3231
      5169.6   201(11)    3232
      5171.2   201(11)    3233
      5172.8   238(12)    3234
      5174.4   208(11)    3235
      5176.0   199(11)    3236
      5177.6   204(11)    3237
      5179.2   196(11)    3238
      5180.8   201(11)    3239
      5182.4   196(11)    3240
      5184.0   209(11)    3241
      5185.6   226(12)    3242
      5187.2   216(12)    3243
      5188.8   217(12)    3244
      5190.4   203(11)    3245
      5192.0   199(11)    3246
      5193.6   207(11)    3247
      5195.2   198(11)    3248
      5196.8   197(11)    3249
      5198.4   206(11)    3250
      5200.0   204(11)    3251
      5201.6   204(11)    3252
      5203.2   194(11)    3253
      5204.8   192(11)    3254
      5206.4   204(11)    3255
      5208.0   203(11)    3256
      5209.6   194(11)    3257
      5211.2   201(11)    3258
      5212.8   196(11)    3259
      5214.4   189(11)    3260
      5216.0   198(11)    3261
      5217.6   190(11)    3262
      5219.2   201(11)    3263
      5220.8   195(11)    3264
      5222.4   196(11)    3265
      5224.0   196(11)    3266
      5225.6   183(11)    3267
      5227.2   196(11)    3268
      5228.8   206(11)    3269
      5230.4   191(11)    3270
      5232.0   204(11)    3271
      5233.6   194(11)    3272
      5235.2   211(11)    3273
      5236.8   181(11)    3274
      5238.4   189(11)    3275
      5240.0   185(11)    3276
      5241.6   189(11)    3277
      5243.2   196(11)    3278
      5244.8   207(11)    3279
      5246.4   183(11)    3280
      5248.0   189(11)    3281
      5249.6   199(11)    3282
      5251.2   188(11)    3283
      5252.8   191(11)    3284
      5254.4   196(11)    3285
      5256.0   201(11)    3286
      5257.6   199(11)    3287
      5259.2   199(11)    3288
      5260.8   188(11)    3289
      5262.4   193(11)    3290
      5264.0   204(11)    3291
      5265.6   204(11)    3292
      5267.2   194(11)    3293
      5268.8   193(11)    3294
      5270.4   196(11)    3295
      5272.0   204(11)    3296
      5273.6   209(11)    3297
      5275.2   197(11)    3298
      5276.8   194(11)    3299
      5278.4   196(11)    3300
      5280.0   193(11)    3301
      5281.6   177(11)    3302
      5283.2   183(11)    3303
      5284.8   189(11)    3304
      5286.4   199(11)    3305
      5288.0   184(11)    3306
      5289.6   191(11)    3307
      5291.2   188(11)    3308
      5292.8   186(11)    3309
      5294.4   185(11)    3310
      5296.0   201(11)    3311
      5297.6   182(11)    3312
      5299.2   190(11)    3313
      5300.8   189(11)    3314
      5302.4   189(11)    3315
      5304.0   187(11)    3316
      5305.6   201(11)    3317
      5307.2   199(11)    3318
      5308.8   181(11)    3319
      5310.4   192(11)    3320
      5312.0   199(11)    3321
      5313.6   191(11)    3322
      5315.2   186(11)    3323
      5316.8   194(11)    3324
      5318.4   197(11)    3325
      5320.0   202(11)    3326
      5321.6   206(11)    3327
      5323.2   197(11)    3328
      5324.8   195(11)    3329
      5326.4   194(11)    3330
      5328.0   209(11)    3331
      5329.6   183(11)    3332
      5331.2   178(11)    3333
      5332.8   186(11)    3334
      5334.4   184(11)    3335
      5336.0   196(11)    3336
      5337.6   184(11)    3337
      5339.2   204(11)    3338
      5340.8   189(11)    3339
      5342.4   201(11)    3340
      5344.0   191(11)    3341
      5345.6   188(11)    3342
      5347.2   178(11)    3343
      5348.8   192(11)    3344
      5350.4   181(11)    3345
      5352.0   186(11)    3346
      5353.6   166(10)    3347
      5355.2   194(11)    3348
      5356.8   199(11)    3349
      5358.4   184(11)    3350
      5360.0   178(11)    3351
      5361.6   188(11)    3352
      5363.2   184(11)    3353
      5364.8   208(11)    3354
      5366.4   196(11)    3355
      5368.0   203(11)    3356
      5369.6   211(11)    3357
      5371.2   192(11)    3358
      5372.8   224(12)    3359
      5374.4   217(12)    3360
      5376.0   195(11)    3361
      5377.6   202(11)    3362
      5379.2   198(11)    3363
      5380.8   181(11)    3364
      5382.4   193(11)    3365
      5384.0   208(11)    3366
      5385.6   193(11)    3367
      5387.2   207(11)    3368
      5388.8   206(11)    3369
      5390.4   219(12)    3370
      5392.0   203(11)    3371
      5393.6   224(12)    3372
      5395.2   234(12)    3373
      5396.8   232(12)    3374
      5398.4   238(12)    3375
      5400.0   233(12)    3376
      5401.6   233(12)    3377
      5403.2   236(12)    3378
      5404.8   248(12)    3379
      5406.4   286(13)    3380
      5408.0   304(14)    3381
      5409.6   311(14)    3382
      5411.2   377(15)    3383
      5412.8   408(16)    3384
      5414.4   463(17)    3385
      5416.0   531(18)    3386
      5417.6   570(19)    3387
      5419.2   683(21)    3388
      5420.8   770(22)    3389
      5422.4   871(23)    3390
      5424.0   987(25)    3391
      5425.6   1058(26)    3392
      5427.2   1176(27)    3393
      5428.8   1341(29)    3394
      5430.4   1468(30)    3395
      5432.0   1561(31)    3396
      5433.6   1719(33)    3397
      5435.2   1821(34)    3398
      5436.8   1954(35)    3399
      5438.4   2083(36)    3400
      5440.0   2149(37)    3401
      5441.6   2249(37)    3402
      5443.2   2263(38)    3403
      5444.8   2257(38)    3404
      5446.4   2353(38)    3405
      5448.0   2304(38)    3406
      5449.6   2303(38)    3407
      5451.2   2341(38)    3408
      5452.8   2296(38)    3409
      5454.4   2141(37)    3410
      5456.0   2040(36)    3411
      5457.6   2042(36)    3412
      5459.2   1894(34)    3413
      5460.8   1804(34)    3414
      5462.4   1693(33)    3415
      5464.0   1599(32)    3416
      5465.6   1506(31)    3417
      5467.2   1433(30)    3418
      5468.8   1310(29)    3419
      5470.4   1205(27)    3420
      5472.0   1140(27)    3421
      5473.6   1041(26)    3422
      5475.2   958(24)    3423
      5476.8   897(24)    3424
      5478.4   823(23)    3425
      5480.0   763(22)    3426
      5481.6   704(21)    3427
      5483.2   654(20)    3428
      5484.8   609(20)    3429
      5486.4   585(19)    3430
      5488.0   511(18)    3431
      5489.6   508(18)    3432
      5491.2   468(17)    3433
      5492.8   430(16)    3434
      5494.4   413(16)    3435
      5496.0   391(16)    3436
      5497.6   374(15)    3437
      5499.2   343(15)    3438
      5500.8   319(14)    3439
      5502.4   331(14)    3440
      5504.0   319(14)    3441
      5505.6   296(14)    3442
      5507.2   277(13)    3443
      5508.8   276(13)    3444
      5510.4   254(13)    3445
      5512.0   266(13)    3446
      5513.6   254(13)    3447
      5515.2   258(13)    3448
      5516.8   216(12)    3449
      5518.4   232(12)    3450
      5520.0   241(12)    3451
      5521.6   234(12)    3452
      5523.2   223(12)    3453
      5524.8   216(12)    3454
      5526.4   207(11)    3455
      5528.0   201(11)    3456
      5529.6   197(11)    3457
      5531.2   222(12)    3458
      5532.8   200(11)    3459
      5534.4   185(11)    3460
      5536.0   207(11)    3461
      5537.6   186(11)    3462
      5539.2   186(11)    3463
      5540.8   189(11)    3464
      5542.4   190(11)    3465
      5544.0   193(11)    3466
      5545.6   191(11)    3467
      5547.2   187(11)    3468
      5548.8   179(11)    3469
      5550.4   174(10)    3470
      5552.0   176(10)    3471
      5553.6   178(11)    3472
      5555.2   185(11)    3473
      5556.8   186(11)    3474
      5558.4   180(11)    3475
      5560.0   158(10)    3476
      5561.6   183(11)    3477
      5563.2   188(11)    3478
      5564.8   181(11)    3479
      5566.4   174(10)    3480
      5568.0   161(10)    3481
      5569.6   156(10)    3482
      5571.2   154(10)    3483
      5572.8   163(10)    3484
      5574.4   154(10)    3485
      5576.0   162(10)    3486
      5577.6   150(10)    3487
      5579.2   158(10)    3488
      5580.8   161(10)    3489
      5582.4   169(10)    3490
      5584.0   166(10)    3491
      5585.6   170(10)    3492
      5587.2   156(10)    3493
      5588.8   158(10)    3494
      5590.4   157(10)    3495
      5592.0   156(10)    3496
      5593.6   161(10)    3497
      5595.2   151(10)    3498
      5596.8   141(9)    3499
      5598.4   174(10)    3500
      5600.0   163(10)    3501
      5601.6   163(10)    3502
      5603.2   162(10)    3503
      5604.8   158(10)    3504
      5606.4   168(10)    3505
      5608.0   148(10)    3506
      5609.6   164(10)    3507
      5611.2   161(10)    3508
      5612.8   154(10)    3509
      5614.4   156(10)    3510
      5616.0   155(10)    3511
      5617.6   153(10)    3512
      5619.2   158(10)    3513
      5620.8   152(10)    3514
      5622.4   158(10)    3515
      5624.0   148(10)    3516
      5625.6   154(10)    3517
      5627.2   156(10)    3518
      5628.8   159(10)    3519
      5630.4   159(10)    3520
      5632.0   144(9)    3521
      5633.6   153(10)    3522
      5635.2   159(10)    3523
      5636.8   147(10)    3524
      5638.4   149(10)    3525
      5640.0   142(9)    3526
      5641.6   167(10)    3527
      5643.2   149(10)    3528
      5644.8   139(9)    3529
      5646.4   154(10)    3530
      5648.0   153(10)    3531
      5649.6   149(10)    3532
      5651.2   163(10)    3533
      5652.8   143(9)    3534
      5654.4   139(9)    3535
      5656.0   152(10)    3536
      5657.6   166(10)    3537
      5659.2   150(10)    3538
      5660.8   138(9)    3539
      5662.4   144(9)    3540
      5664.0   154(10)    3541
      5665.6   141(9)    3542
      5667.2   147(10)    3543
      5668.8   140(9)    3544
      5670.4   135(9)    3545
      5672.0   141(9)    3546
      5673.6   150(10)    3547
      5675.2   147(10)    3548
      5676.8   154(10)    3549
      5678.4   148(10)    3550
      5680.0   143(9)    3551
      5681.6   141(9)    3552
      5683.2   138(9)    3553
      5684.8   151(10)    3554
      5686.4   144(9)    3555
      5688.0   138(9)    3556
      5689.6   143(9)    3557
      5691.2   150(10)    3558
      5692.8   151(10)    3559
      5694.4   143(9)    3560
      5696.0   150(10)    3561
      5697.6   139(9)    3562
      5699.2   138(9)    3563
      5700.8   150(10)    3564
      5702.4   150(10)    3565
      5704.0   127(9)    3566
      5705.6   146(10)    3567
      5707.2   134(9)    3568
      5708.8   140(9)    3569
      5710.4   138(9)    3570
      5712.0   138(9)    3571
      5713.6   146(10)    3572
      5715.2   141(9)    3573
      5716.8   132(9)    3574
      5718.4   133(9)    3575
      5720.0   144(9)    3576
      5721.6   146(10)    3577
      5723.2   150(10)    3578
      5724.8   155(10)    3579
      5726.4   138(9)    3580
      5728.0   133(9)    3581
      5729.6   149(10)    3582
      5731.2   127(9)    3583
      5732.8   128(9)    3584
      5734.4   131(9)    3585
      5736.0   132(9)    3586
      5737.6   141(9)    3587
      5739.2   138(9)    3588
      5740.8   124(9)    3589
      5742.4   134(9)    3590
      5744.0   128(9)    3591
      5745.6   143(9)    3592
      5747.2   129(9)    3593
      5748.8   128(9)    3594
      5750.4   123(9)    3595
      5752.0   121(9)    3596
      5753.6   124(9)    3597
      5755.2   143(9)    3598
      5756.8   138(9)    3599
      5758.4   129(9)    3600
      5760.0   123(9)    3601
      5761.6   119(9)    3602
      5763.2   122(9)    3603
      5764.8   149(10)    3604
      5766.4   152(10)    3605
      5768.0   129(9)    3606
      5769.6   146(10)    3607
      5771.2   150(10)    3608
      5772.8   119(9)    3609
      5774.4   137(9)    3610
      5776.0   118(9)    3611
      5777.6   137(9)    3612
      5779.2   131(9)    3613
      5780.8   141(9)    3614
      5782.4   140(9)    3615
      5784.0   133(9)    3616
      5785.6   128(9)    3617
      5787.2   138(9)    3618
      5788.8   138(9)    3619
      5790.4   129(9)    3620
      5792.0   130(9)    3621
      5793.6   123(9)    3622
      5795.2   123(9)    3623
      5796.8   122(9)    3624
      5798.4   120(9)    3625
      5800.0   119(9)    3626
      5801.6   131(9)    3627
      5803.2   141(9)    3628
      5804.8   133(9)    3629
      5806.4   126(9)    3630
      5808.0   131(9)    3631
      5809.6   115(8)    3632
      5811.2   134(9)    3633
      5812.8   124(9)    3634
      5814.4   116(9)    3635
      5816.0   118(9)    3636
      5817.6   135(9)    3637
      5819.2   124(9)    3638
      5820.8   124(9)    3639
      5822.4   112(8)    3640
      5824.0   122(9)    3641
      5825.6   139(9)    3642
      5827.2   133(9)    3643
      5828.8   133(9)    3644
      5830.4   113(8)    3645
      5832.0   119(9)    3646
      5833.6   119(9)    3647
      5835.2   123(9)    3648
      5836.8   121(9)    3649
      5838.4   127(9)    3650
      5840.0   129(9)    3651
      5841.6   118(9)    3652
      5843.2   120(9)    3653
      5844.8   120(9)    3654
      5846.4   108(8)    3655
      5848.0   109(8)    3656
      5849.6   131(9)    3657
      5851.2   136(9)    3658
      5852.8   129(9)    3659
      5854.4   126(9)    3660
      5856.0   118(9)    3661
      5857.6   122(9)    3662
      5859.2   141(9)    3663
      5860.8   121(9)    3664
      5862.4   133(9)    3665
      5864.0   115(8)    3666
      5865.6   116(9)    3667
      5867.2   121(9)    3668
      5868.8   125(9)    3669
      5870.4   123(9)    3670
      5872.0   126(9)    3671
      5873.6   121(9)    3672
      5875.2   119(9)    3673
      5876.8   113(8)    3674
      5878.4   121(9)    3675
      5880.0   128(9)    3676
      5881.6   111(8)    3677
      5883.2   121(9)    3678
      5884.8   112(8)    3679
      5886.4   126(9)    3680
      5888.0   134(9)    3681
      5889.6   122(9)    3682
      5891.2   126(9)    3683
      5892.8   129(9)    3684
      5894.4   134(9)    3685
      5896.0   132(9)    3686
      5897.6   135(9)    3687
      5899.2   137(9)    3688
      5900.8   142(9)    3689
      5902.4   148(10)    3690
      5904.0   141(9)    3691
      5905.6   161(10)    3692
      5907.2   168(10)    3693
      5908.8   161(10)    3694
      5910.4   171(10)    3695
      5912.0   194(11)    3696
      5913.6   203(11)    3697
      5915.2   185(11)    3698
      5916.8   192(11)    3699
      5918.4   200(11)    3700
      5920.0   228(12)    3701
      5921.6   259(13)    3702
      5923.2   237(12)    3703
      5924.8   233(12)    3704
      5926.4   248(12)    3705
      5928.0   267(13)    3706
      5929.6   263(13)    3707
      5931.2   269(13)    3708
      5932.8   277(13)    3709
      5934.4   294(14)    3710
      5936.0   261(13)    3711
      5937.6   261(13)    3712
      5939.2   258(13)    3713
      5940.8   264(13)    3714
      5942.4   254(13)    3715
      5944.0   263(13)    3716
      5945.6   245(12)    3717
      5947.2   235(12)    3718
      5948.8   227(12)    3719
      5950.4   244(12)    3720
      5952.0   229(12)    3721
      5953.6   216(12)    3722
      5955.2   204(11)    3723
      5956.8   194(11)    3724
      5958.4   197(11)    3725
      5960.0   173(10)    3726
      5961.6   182(11)    3727
      5963.2   178(11)    3728
      5964.8   171(10)    3729
      5966.4   168(10)    3730
      5968.0   158(10)    3731
      5969.6   141(9)    3732
      5971.2   138(9)    3733
      5972.8   142(9)    3734
      5974.4   128(9)    3735
      5976.0   131(9)    3736
      5977.6   136(9)    3737
      5979.2   115(8)    3738
      5980.8   131(9)    3739
      5982.4   130(9)    3740
      5984.0   126(9)    3741
      5985.6   123(9)    3742
      5987.2   123(9)    3743
      5988.8   126(9)    3744
      5990.4   131(9)    3745
      5992.0   124(9)    3746
      5993.6   111(8)    3747
      5995.2   127(9)    3748
      5996.8   126(9)    3749
      5998.4   109(8)    3750
      6000.0   115(8)    3751
      6001.6   99(8)    3752
      6003.2   98(8)    3753
      6004.8   114(8)    3754
      6006.4   99(8)    3755
      6008.0   123(9)    3756
      6009.6   122(9)    3757
      6011.2   128(9)    3758
      6012.8   114(8)    3759
      6014.4   112(8)    3760
      6016.0   102(8)    3761
      6017.6   98(8)    3762
      6019.2   116(9)    3763
      6020.8   98(8)    3764
      6022.4   98(8)    3765
      6024.0   116(9)    3766
      6025.6   104(8)    3767
      6027.2   114(8)    3768
      6028.8   118(9)    3769
      6030.4   109(8)    3770
      6032.0   111(8)    3771
      6033.6   110(8)    3772
      6035.2   108(8)    3773
      6036.8   99(8)    3774
      6038.4   107(8)    3775
      6040.0   119(9)    3776
      6041.6   101(8)    3777
      6043.2   113(8)    3778
      6044.8   109(8)    3779
      6046.4   112(8)    3780
      6048.0   101(8)    3781
      6049.6   113(8)    3782
      6051.2   108(8)    3783
      6052.8   98(8)    3784
      6054.4   109(8)    3785
      6056.0   111(8)    3786
      6057.6   101(8)    3787
      6059.2   100(8)    3788
      6060.8   95(8)    3789
      6062.4   105(8)    3790
      6064.0   113(8)    3791
      6065.6   111(8)    3792
      6067.2   99(8)    3793
      6068.8   109(8)    3794
      6070.4   109(8)    3795
      6072.0   118(9)    3796
      6073.6   112(8)    3797
      6075.2   102(8)    3798
      6076.8   101(8)    3799
      6078.4   94(8)    3800
      6080.0   98(8)    3801
      6081.6   100(8)    3802
      6083.2   112(8)    3803
      6084.8   89(7)    3804
      6086.4   97(8)    3805
      6088.0   100(8)    3806
      6089.6   91(8)    3807
      6091.2   99(8)    3808
      6092.8   93(8)    3809
      6094.4   89(7)    3810
      6096.0   100(8)    3811
      6097.6   109(8)    3812
      6099.2   101(8)    3813
      6100.8   104(8)    3814
      6102.4   97(8)    3815
      6104.0   99(8)    3816
      6105.6   98(8)    3817
      6107.2   103(8)    3818
      6108.8   106(8)    3819
      6110.4   84(7)    3820
      6112.0   89(7)    3821
      6113.6   99(8)    3822
      6115.2   104(8)    3823
      6116.8   99(8)    3824
      6118.4   110(8)    3825
      6120.0   100(8)    3826
      6121.6   95(8)    3827
      6123.2   97(8)    3828
      6124.8   83(7)    3829
      6126.4   88(7)    3830
      6128.0   93(8)    3831
      6129.6   98(8)    3832
      6131.2   99(8)    3833
      6132.8   99(8)    3834
      6134.4   103(8)    3835
      6136.0   93(8)    3836
      6137.6   98(8)    3837
      6139.2   103(8)    3838
      6140.8   98(8)    3839
      6142.4   93(8)    3840
      6144.0   88(7)    3841
      6145.6   94(8)    3842
      6147.2   98(8)    3843
      6148.8   99(8)    3844
      6150.4   89(7)    3845
      6152.0   97(8)    3846
      6153.6   91(8)    3847
      6155.2   87(7)    3848
      6156.8   94(8)    3849
      6158.4   97(8)    3850
      6160.0   89(7)    3851
      6161.6   91(8)    3852
      6163.2   96(8)    3853
      6164.8   89(7)    3854
      6166.4   93(8)    3855
      6168.0   102(8)    3856
      6169.6   100(8)    3857
      6171.2   111(8)    3858
      6172.8   92(8)    3859
      6174.4   92(8)    3860
      6176.0   93(8)    3861
      6177.6   94(8)    3862
      6179.2   88(7)    3863
      6180.8   93(8)    3864
      6182.4   84(7)    3865
      6184.0   90(8)    3866
      6185.6   88(7)    3867
      6187.2   95(8)    3868
      6188.8   88(7)    3869
      6190.4   98(8)    3870
      6192.0   87(7)    3871
      6193.6   88(7)    3872
      6195.2   97(8)    3873
      6196.8   105(8)    3874
      6198.4   97(8)    3875
      6200.0   91(8)    3876
      6201.6   93(8)    3877
      6203.2   91(8)    3878
      6204.8   88(7)    3879
      6206.4   94(8)    3880
      6208.0   99(8)    3881
      6209.6   89(7)    3882
      6211.2   88(7)    3883
      6212.8   91(8)    3884
      6214.4   91(8)    3885
      6216.0   100(8)    3886
      6217.6   88(7)    3887
      6219.2   82(7)    3888
      6220.8   86(7)    3889
      6222.4   93(8)    3890
      6224.0   94(8)    3891
      6225.6   93(8)    3892
      6227.2   85(7)    3893
      6228.8   84(7)    3894
      6230.4   81(7)    3895
      6232.0   87(7)    3896
      6233.6   88(7)    3897
      6235.2   86(7)    3898
      6236.8   96(8)    3899
      6238.4   86(7)    3900
      6240.0   89(7)    3901
      6241.6   86(7)    3902
      6243.2   79(7)    3903
      6244.8   73(7)    3904
      6246.4   87(7)    3905
      6248.0   86(7)    3906
      6249.6   93(8)    3907
      6251.2   90(8)    3908
      6252.8   83(7)    3909
      6254.4   86(7)    3910
      6256.0   78(7)    3911
      6257.6   89(7)    3912
      6259.2   91(8)    3913
      6260.8   91(8)    3914
      6262.4   89(7)    3915
      6264.0   84(7)    3916
      6265.6   88(7)    3917
      6267.2   86(7)    3918
      6268.8   93(8)    3919
      6270.4   103(8)    3920
      6272.0   85(7)    3921
      6273.6   89(7)    3922
      6275.2   98(8)    3923
      6276.8   89(7)    3924
      6278.4   84(7)    3925
      6280.0   81(7)    3926
      6281.6   88(7)    3927
      6283.2   88(7)    3928
      6284.8   84(7)    3929
      6286.4   83(7)    3930
      6288.0   79(7)    3931
      6289.6   93(8)    3932
      6291.2   93(8)    3933
      6292.8   86(7)    3934
      6294.4   87(7)    3935
      6296.0   91(8)    3936
      6297.6   86(7)    3937
      6299.2   81(7)    3938
      6300.8   88(7)    3939
      6302.4   76(7)    3940
      6304.0   83(7)    3941
      6305.6   99(8)    3942
      6307.2   97(8)    3943
      6308.8   89(7)    3944
      6310.4   93(8)    3945
      6312.0   82(7)    3946
      6313.6   88(7)    3947
      6315.2   88(7)    3948
      6316.8   78(7)    3949
      6318.4   82(7)    3950
      6320.0   83(7)    3951
      6321.6   88(7)    3952
      6323.2   83(7)    3953
      6324.8   68(7)    3954
      6326.4   84(7)    3955
      6328.0   87(7)    3956
      6329.6   92(8)    3957
      6331.2   77(7)    3958
      6332.8   86(7)    3959
      6334.4   76(7)    3960
      6336.0   79(7)    3961
      6337.6   89(7)    3962
      6339.2   84(7)    3963
      6340.8   80(7)    3964
      6342.4   79(7)    3965
      6344.0   84(7)    3966
      6345.6   82(7)    3967
      6347.2   86(7)    3968
      6348.8   91(8)    3969
      6350.4   96(8)    3970
      6352.0   83(7)    3971
      6353.6   81(7)    3972
      6355.2   78(7)    3973
      6356.8   87(7)    3974
      6358.4   66(6)    3975
      6360.0   93(8)    3976
      6361.6   84(7)    3977
      6363.2   76(7)    3978
      6364.8   74(7)    3979
      6366.4   81(7)    3980
      6368.0   73(7)    3981
      6369.6   91(8)    3982
      6371.2   74(7)    3983
      6372.8   72(7)    3984
      6374.4   73(7)    3985
      6376.0   66(6)    3986
      6377.6   69(7)    3987
      6379.2   77(7)    3988
      6380.8   76(7)    3989
      6382.4   70(7)    3990
      6384.0   75(7)    3991
      6385.6   76(7)    3992
      6387.2   88(7)    3993
      6388.8   78(7)    3994
      6390.4   78(7)    3995
      6392.0   76(7)    3996
      6393.6   84(7)    3997
      6395.2   75(7)    3998
      6396.8   82(7)    3999
      6398.4   74(7)    4000
      6400.0   76(7)    4001
      6401.6   76(7)    4002
      6403.2   81(7)    4003
      6404.8   84(7)    4004
      6406.4   80(7)    4005
      6408.0   81(7)    4006
      6409.6   79(7)    4007
      6411.2   77(7)    4008
      6412.8   83(7)    4009
      6414.4   83(7)    4010
      6416.0   89(7)    4011
      6417.6   74(7)    4012
      6419.2   83(7)    4013
      6420.8   80(7)    4014
      6422.4   86(7)    4015
      6424.0   89(7)    4016
      6425.6   77(7)    4017
      6427.2   76(7)    4018
      6428.8   79(7)    4019
      6430.4   85(7)    4020
      6432.0   73(7)    4021
      6433.6   79(7)    4022
      6435.2   85(7)    4023
      6436.8   78(7)    4024
      6438.4   90(8)    4025
      6440.0   82(7)    4026
      6441.6   76(7)    4027
      6443.2   86(7)    4028
      6444.8   81(7)    4029
      6446.4   73(7)    4030
      6448.0   70(7)    4031
      6449.6   73(7)    4032
      6451.2   74(7)    4033
      6452.8   81(7)    4034
      6454.4   80(7)    4035
      6456.0   83(7)    4036
      6457.6   79(7)    4037
      6459.2   78(7)    4038
      6460.8   78(7)    4039
      6462.4   71(7)    4040
      6464.0   83(7)    4041
      6465.6   74(7)    4042
      6467.2   78(7)    4043
      6468.8   79(7)    4044
      6470.4   69(7)    4045
      6472.0   68(6)    4046
      6473.6   68(7)    4047
      6475.2   73(7)    4048
      6476.8   73(7)    4049
      6478.4   71(7)    4050
      6480.0   76(7)    4051
      6481.6   74(7)    4052
      6483.2   79(7)    4053
      6484.8   80(7)    4054
      6486.4   66(6)    4055
      6488.0   74(7)    4056
      6489.6   78(7)    4057
      6491.2   79(7)    4058
      6492.8   73(7)    4059
      6494.4   75(7)    4060
      6496.0   84(7)    4061
      6497.6   73(7)    4062
      6499.2   73(7)    4063
      6500.8   81(7)    4064
      6502.4   71(7)    4065
      6504.0   71(7)    4066
      6505.6   67(6)    4067
      6507.2   73(7)    4068
      6508.8   71(7)    4069
      6510.4   68(7)    4070
      6512.0   73(7)    4071
      6513.6   74(7)    4072
      6515.2   77(7)    4073
      6516.8   78(7)    4074
      6518.4   68(7)    4075
      6520.0   67(6)    4076
      6521.6   73(7)    4077
      6523.2   74(7)    4078
      6524.8   76(7)    4079
      6526.4   71(7)    4080
      6528.0   64(6)    4081
      6529.6   60(6)    4082
      6531.2   75(7)    4083
      6532.8   86(7)    4084
      6534.4   74(7)    4085
      6536.0   74(7)    4086
      6537.6   73(7)    4087
      6539.2   78(7)    4088
      6540.8   73(7)    4089
      6542.4   69(7)    4090
      6544.0   72(7)    4091
      6545.6   73(7)    4092
      6547.2   84(7)    4093
      6548.8   74(7)    4094
      6550.4   80(7)    4095
      6552.0   69(7)    4096
      6553.6   64(6)    4097
      6555.2   65(6)    4098
      6556.8   68(6)    4099
      6558.4   69(7)    4100
      6560.0   68(7)    4101
      6561.6   61(6)    4102
      6563.2   66(6)    4103
      6564.8   74(7)    4104
      6566.4   71(7)    4105
      6568.0   79(7)    4106
      6569.6   77(7)    4107
      6571.2   71(7)    4108
      6572.8   66(6)    4109
      6574.4   68(7)    4110
      6576.0   74(7)    4111
      6577.6   68(6)    4112
      6579.2   65(6)    4113
      6580.8   65(6)    4114
      6582.4   78(7)    4115
      6584.0   62(6)    4116
      6585.6   63(6)    4117
      6587.2   67(6)    4118
      6588.8   74(7)    4119
      6590.4   74(7)    4120
      6592.0   71(7)    4121
      6593.6   67(6)    4122
      6595.2   68(7)    4123
      6596.8   66(6)    4124
      6598.4   61(6)    4125
      6600.0   63(6)    4126
      6601.6   66(6)    4127
      6603.2   73(7)    4128
      6604.8   67(6)    4129
      6606.4   69(7)    4130
      6608.0   71(7)    4131
      6609.6   66(6)    4132
      6611.2   68(6)    4133
      6612.8   62(6)    4134
      6614.4   63(6)    4135
      6616.0   63(6)    4136
      6617.6   62(6)    4137
      6619.2   73(7)    4138
      6620.8   73(7)    4139
      6622.4   73(7)    4140
      6624.0   71(7)    4141
      6625.6   73(7)    4142
      6627.2   68(6)    4143
      6628.8   66(6)    4144
      6630.4   69(7)    4145
      6632.0   60(6)    4146
      6633.6   71(7)    4147
      6635.2   64(6)    4148
      6636.8   50(6)    4149
      6638.4   69(7)    4150
      6640.0   66(6)    4151
      6641.6   64(6)    4152
      6643.2   63(6)    4153
      6644.8   75(7)    4154
      6646.4   61(6)    4155
      6648.0   59(6)    4156
      6649.6   66(6)    4157
      6651.2   63(6)    4158
      6652.8   67(6)    4159
      6654.4   62(6)    4160
      6656.0   68(6)    4161
      6657.6   76(7)    4162
      6659.2   64(6)    4163
      6660.8   62(6)    4164
      6662.4   58(6)    4165
      6664.0   61(6)    4166
      6665.6   57(6)    4167
      6667.2   59(6)    4168
      6668.8   62(6)    4169
      6670.4   66(6)    4170
      6672.0   56(6)    4171
      6673.6   59(6)    4172
      6675.2   66(6)    4173
      6676.8   65(6)    4174
      6678.4   56(6)    4175
      6680.0   64(6)    4176
      6681.6   70(7)    4177
      6683.2   65(6)    4178
      6684.8   69(7)    4179
      6686.4   58(6)    4180
      6688.0   55(6)    4181
      6689.6   57(6)    4182
      6691.2   56(6)    4183
      6692.8   70(7)    4184
      6694.4   62(6)    4185
      6696.0   52(6)    4186
      6697.6   64(6)    4187
      6699.2   76(7)    4188
      6700.8   71(7)    4189
      6702.4   68(7)    4190
      6704.0   64(6)    4191
      6705.6   59(6)    4192
      6707.2   67(6)    4193
      6708.8   73(7)    4194
      6710.4   71(7)    4195
      6712.0   59(6)    4196
      6713.6   61(6)    4197
      6715.2   62(6)    4198
      6716.8   66(6)    4199
      6718.4   62(6)    4200
      6720.0   61(6)    4201
      6721.6   58(6)    4202
      6723.2   62(6)    4203
      6724.8   65(6)    4204
      6726.4   62(6)    4205
      6728.0   65(6)    4206
      6729.6   67(6)    4207
      6731.2   54(6)    4208
      6732.8   54(6)    4209
      6734.4   59(6)    4210
      6736.0   61(6)    4211
      6737.6   53(6)    4212
      6739.2   78(7)    4213
      6740.8   63(6)    4214
      6742.4   57(6)    4215
      6744.0   53(6)    4216
      6745.6   63(6)    4217
      6747.2   64(6)    4218
      6748.8   68(7)    4219
      6750.4   65(6)    4220
      6752.0   64(6)    4221
      6753.6   76(7)    4222
      6755.2   53(6)    4223
      6756.8   61(6)    4224
      6758.4   61(6)    4225
      6760.0   47(5)    4226
      6761.6   51(6)    4227
      6763.2   55(6)    4228
      6764.8   53(6)    4229
      6766.4   56(6)    4230
      6768.0   63(6)    4231
      6769.6   58(6)    4232
      6771.2   61(6)    4233
      6772.8   61(6)    4234
      6774.4   55(6)    4235
      6776.0   62(6)    4236
      6777.6   64(6)    4237
      6779.2   57(6)    4238
      6780.8   61(6)    4239
      6782.4   51(6)    4240
      6784.0   55(6)    4241
      6785.6   51(6)    4242
      6787.2   51(6)    4243
      6788.8   65(6)    4244
      6790.4   54(6)    4245
      6792.0   58(6)    4246
      6793.6   76(7)    4247
      6795.2   59(6)    4248
      6796.8   63(6)    4249
      6798.4   59(6)    4250
      6800.0   60(6)    4251
      6801.6   61(6)    4252
      6803.2   59(6)    4253
      6804.8   56(6)    4254
      6806.4   51(6)    4255
      6808.0   53(6)    4256
      6809.6   53(6)    4257
      6811.2   50(6)    4258
      6812.8   61(6)    4259
      6814.4   57(6)    4260
      6816.0   60(6)    4261
      6817.6   58(6)    4262
      6819.2   58(6)    4263
      6820.8   55(6)    4264
      6822.4   60(6)    4265
      6824.0   56(6)    4266
      6825.6   56(6)    4267
      6827.2   54(6)    4268
      6828.8   56(6)    4269
      6830.4   63(6)    4270
      6832.0   57(6)    4271
      6833.6   56(6)    4272
      6835.2   56(6)    4273
      6836.8   51(6)    4274
      6838.4   50(6)    4275
      6840.0   59(6)    4276
      6841.6   53(6)    4277
      6843.2   49(6)    4278
      6844.8   49(6)    4279
      6846.4   54(6)    4280
      6848.0   61(6)    4281
      6849.6   55(6)    4282
      6851.2   63(6)    4283
      6852.8   57(6)    4284
      6854.4   56(6)    4285
      6856.0   49(6)    4286
      6857.6   54(6)    4287
      6859.2   62(6)    4288
      6860.8   56(6)    4289
      6862.4   53(6)    4290
      6864.0   57(6)    4291
      6865.6   61(6)    4292
      6867.2   61(6)    4293
      6868.8   57(6)    4294
      6870.4   52(6)    4295
      6872.0   53(6)    4296
      6873.6   56(6)    4297
      6875.2   59(6)    4298
      6876.8   58(6)    4299
      6878.4   57(6)    4300
      6880.0   55(6)    4301
      6881.6   56(6)    4302
      6883.2   50(6)    4303
      6884.8   53(6)    4304
      6886.4   58(6)    4305
      6888.0   53(6)    4306
      6889.6   56(6)    4307
      6891.2   68(7)    4308
      6892.8   56(6)    4309
      6894.4   53(6)    4310
      6896.0   49(6)    4311
      6897.6   51(6)    4312
      6899.2   56(6)    4313
      6900.8   53(6)    4314
      6902.4   56(6)    4315
      6904.0   47(5)    4316
      6905.6   54(6)    4317
      6907.2   54(6)    4318
      6908.8   51(6)    4319
      6910.4   47(5)    4320
      6912.0   55(6)    4321
      6913.6   54(6)    4322
      6915.2   58(6)    4323
      6916.8   55(6)    4324
      6918.4   53(6)    4325
      6920.0   49(6)    4326
      6921.6   51(6)    4327
      6923.2   51(6)    4328
      6924.8   58(6)    4329
      6926.4   54(6)    4330
      6928.0   66(6)    4331
      6929.6   51(6)    4332
      6931.2   55(6)    4333
      6932.8   47(5)    4334
      6934.4   49(6)    4335
      6936.0   56(6)    4336
      6937.6   48(5)    4337
      6939.2   53(6)    4338
      6940.8   60(6)    4339
      6942.4   59(6)    4340
      6944.0   56(6)    4341
      6945.6   59(6)    4342
      6947.2   55(6)    4343
      6948.8   58(6)    4344
      6950.4   52(6)    4345
      6952.0   50(6)    4346
      6953.6   58(6)    4347
      6955.2   54(6)    4348
      6956.8   54(6)    4349
      6958.4   54(6)    4350
      6960.0   46(5)    4351
      6961.6   48(5)    4352
      6963.2   51(6)    4353
      6964.8   46(5)    4354
      6966.4   52(6)    4355
      6968.0   56(6)    4356
      6969.6   47(5)    4357
      6971.2   46(5)    4358
      6972.8   56(6)    4359
      6974.4   51(6)    4360
      6976.0   49(6)    4361
      6977.6   43(5)    4362
      6979.2   50(6)    4363
      6980.8   52(6)    4364
      6982.4   55(6)    4365
      6984.0   59(6)    4366
      6985.6   57(6)    4367
      6987.2   57(6)    4368
      6988.8   57(6)    4369
      6990.4   54(6)    4370
      6992.0   51(6)    4371
      6993.6   55(6)    4372
      6995.2   55(6)    4373
      6996.8   57(6)    4374
      6998.4   49(6)    4375
      7000.0   43(5)    4376
      7001.6   49(6)    4377
      7003.2   53(6)    4378
      7004.8   50(6)    4379
      7006.4   51(6)    4380
      7008.0   63(6)    4381
      7009.6   47(5)    4382
      7011.2   48(5)    4383
      7012.8   52(6)    4384
      7014.4   54(6)    4385
      7016.0   49(6)    4386
      7017.6   48(5)    4387
      7019.2   53(6)    4388
      7020.8   51(6)    4389
      7022.4   54(6)    4390
      7024.0   49(6)    4391
      7025.6   51(6)    4392
      7027.2   52(6)    4393
      7028.8   58(6)    4394
      7030.4   48(5)    4395
      7032.0   54(6)    4396
      7033.6   52(6)    4397
      7035.2   44(5)    4398
      7036.8   49(6)    4399
      7038.4   52(6)    4400
      7040.0   59(6)    4401
      7041.6   45(5)    4402
      7043.2   49(6)    4403
      7044.8   53(6)    4404
      7046.4   50(6)    4405
      7048.0   46(5)    4406
      7049.6   46(5)    4407
      7051.2   56(6)    4408
      7052.8   54(6)    4409
      7054.4   47(5)    4410
      7056.0   48(5)    4411
      7057.6   49(6)    4412
      7059.2   51(6)    4413
      7060.8   56(6)    4414
      7062.4   57(6)    4415
      7064.0   53(6)    4416
      7065.6   45(5)    4417
      7067.2   50(6)    4418
      7068.8   46(5)    4419
      7070.4   51(6)    4420
      7072.0   48(5)    4421
      7073.6   50(6)    4422
      7075.2   40(5)    4423
      7076.8   47(5)    4424
      7078.4   48(5)    4425
      7080.0   42(5)    4426
      7081.6   48(5)    4427
      7083.2   52(6)    4428
      7084.8   46(5)    4429
      7086.4   43(5)    4430
      7088.0   51(6)    4431
      7089.6   48(5)    4432
      7091.2   47(5)    4433
      7092.8   53(6)    4434
      7094.4   51(6)    4435
      7096.0   42(5)    4436
      7097.6   53(6)    4437
      7099.2   51(6)    4438
      7100.8   50(6)    4439
      7102.4   53(6)    4440
      7104.0   53(6)    4441
      7105.6   58(6)    4442
      7107.2   70(7)    4443
      7108.8   59(6)    4444
      7110.4   56(6)    4445
      7112.0   66(6)    4446
      7113.6   71(7)    4447
      7115.2   67(6)    4448
      7116.8   84(7)    4449
      7118.4   84(7)    4450
      7120.0   87(7)    4451
      7121.6   101(8)    4452
      7123.2   135(9)    4453
      7124.8   137(9)    4454
      7126.4   148(10)    4455
      7128.0   154(10)    4456
      7129.6   158(10)    4457
      7131.2   180(11)    4458
      7132.8   189(11)    4459
      7134.4   204(11)    4460
      7136.0   224(12)    4461
      7137.6   217(12)    4462
      7139.2   248(12)    4463
      7140.8   258(13)    4464
      7142.4   272(13)    4465
      7144.0   264(13)    4466
      7145.6   262(13)    4467
      7147.2   286(13)    4468
      7148.8   315(14)    4469
      7150.4   315(14)    4470
      7152.0   292(14)    4471
      7153.6   311(14)    4472
      7155.2   308(14)    4473
      7156.8   312(14)    4474
      7158.4   313(14)    4475
      7160.0   318(14)    4476
      7161.6   320(14)    4477
      7163.2   305(14)    4478
      7164.8   312(14)    4479
      7166.4   292(14)    4480
      7168.0   281(13)    4481
      7169.6   243(12)    4482
      7171.2   249(12)    4483
      7172.8   236(12)    4484
      7174.4   206(11)    4485
      7176.0   204(11)    4486
      7177.6   186(11)    4487
      7179.2   171(10)    4488
      7180.8   171(10)    4489
      7182.4   169(10)    4490
      7184.0   151(10)    4491
      7185.6   123(9)    4492
      7187.2   129(9)    4493
      7188.8   140(9)    4494
      7190.4   124(9)    4495
      7192.0   106(8)    4496
      7193.6   104(8)    4497
      7195.2   98(8)    4498
      7196.8   91(8)    4499
      7198.4   93(8)    4500
      7200.0   86(7)    4501
      7201.6   84(7)    4502
      7203.2   90(8)    4503
      7204.8   74(7)    4504
      7206.4   64(6)    4505
      7208.0   63(6)    4506
      7209.6   63(6)    4507
      7211.2   67(6)    4508
      7212.8   64(6)    4509
      7214.4   64(6)    4510
      7216.0   69(7)    4511
      7217.6   64(6)    4512
      7219.2   61(6)    4513
      7220.8   61(6)    4514
      7222.4   53(6)    4515
      7224.0   52(6)    4516
      7225.6   48(5)    4517
      7227.2   49(6)    4518
      7228.8   52(6)    4519
      7230.4   51(6)    4520
      7232.0   53(6)    4521
      7233.6   44(5)    4522
      7235.2   51(6)    4523
      7236.8   53(6)    4524
      7238.4   49(6)    4525
      7240.0   48(5)    4526
      7241.6   51(6)    4527
      7243.2   36(5)    4528
      7244.8   42(5)    4529
      7246.4   53(6)    4530
      7248.0   53(6)    4531
      7249.6   59(6)    4532
      7251.2   54(6)    4533
      7252.8   53(6)    4534
      7254.4   42(5)    4535
      7256.0   43(5)    4536
      7257.6   44(5)    4537
      7259.2   44(5)    4538
      7260.8   39(5)    4539
      7262.4   48(5)    4540
      7264.0   44(5)    4541
      7265.6   40(5)    4542
      7267.2   49(6)    4543
      7268.8   53(6)    4544
      7270.4   56(6)    4545
      7272.0   44(5)    4546
      7273.6   46(5)    4547
      7275.2   46(5)    4548
      7276.8   48(5)    4549
      7278.4   43(5)    4550
      7280.0   43(5)    4551
      7281.6   40(5)    4552
      7283.2   38(5)    4553
      7284.8   44(5)    4554
      7286.4   44(5)    4555
      7288.0   39(5)    4556
      7289.6   43(5)    4557
      7291.2   48(5)    4558
      7292.8   42(5)    4559
      7294.4   42(5)    4560
      7296.0   38(5)    4561
      7297.6   46(5)    4562
      7299.2   46(5)    4563
      7300.8   49(6)    4564
      7302.4   43(5)    4565
      7304.0   48(5)    4566
      7305.6   46(5)    4567
      7307.2   41(5)    4568
      7308.8   47(5)    4569
      7310.4   39(5)    4570
      7312.0   49(6)    4571
      7313.6   46(5)    4572
      7315.2   39(5)    4573
      7316.8   39(5)    4574
      7318.4   41(5)    4575
      7320.0   42(5)    4576
      7321.6   49(6)    4577
      7323.2   46(5)    4578
      7324.8   43(5)    4579
      7326.4   46(5)    4580
      7328.0   52(6)    4581
      7329.6   43(5)    4582
      7331.2   39(5)    4583
      7332.8   39(5)    4584
      7334.4   38(5)    4585
      7336.0   34(5)    4586
      7337.6   36(5)    4587
      7339.2   36(5)    4588
      7340.8   36(5)    4589
      7342.4   44(5)    4590
      7344.0   39(5)    4591
      7345.6   42(5)    4592
      7347.2   46(5)    4593
      7348.8   41(5)    4594
      7350.4   41(5)    4595
      7352.0   49(6)    4596
      7353.6   39(5)    4597
      7355.2   46(5)    4598
      7356.8   39(5)    4599
      7358.4   39(5)    4600
      7360.0   43(5)    4601
      7361.6   40(5)    4602
      7363.2   44(5)    4603
      7364.8   47(5)    4604
      7366.4   36(5)    4605
      7368.0   36(5)    4606
      7369.6   38(5)    4607
      7371.2   41(5)    4608
      7372.8   39(5)    4609
      7374.4   41(5)    4610
      7376.0   41(5)    4611
      7377.6   53(6)    4612
      7379.2   52(6)    4613
      7380.8   47(5)    4614
      7382.4   46(5)    4615
      7384.0   51(6)    4616
      7385.6   46(5)    4617
      7387.2   44(5)    4618
      7388.8   46(5)    4619
      7390.4   41(5)    4620
      7392.0   33(5)    4621
      7393.6   44(5)    4622
      7395.2   38(5)    4623
      7396.8   35(5)    4624
      7398.4   39(5)    4625
      7400.0   36(5)    4626
      7401.6   39(5)    4627
      7403.2   41(5)    4628
      7404.8   41(5)    4629
      7406.4   43(5)    4630
      7408.0   38(5)    4631
      7409.6   43(5)    4632
      7411.2   36(5)    4633
      7412.8   33(5)    4634
      7414.4   34(5)    4635
      7416.0   43(5)    4636
      7417.6   42(5)    4637
      7419.2   43(5)    4638
      7420.8   30(4)    4639
      7422.4   36(5)    4640
      7424.0   49(6)    4641
      7425.6   43(5)    4642
      7427.2   48(5)    4643
      7428.8   44(5)    4644
      7430.4   39(5)    4645
      7432.0   36(5)    4646
      7433.6   38(5)    4647
      7435.2   44(5)    4648
      7436.8   34(5)    4649
      7438.4   39(5)    4650
      7440.0   38(5)    4651
      7441.6   42(5)    4652
      7443.2   45(5)    4653
      7444.8   38(5)    4654
      7446.4   36(5)    4655
      7448.0   36(5)    4656
      7449.6   39(5)    4657
      7451.2   46(5)    4658
      7452.8   42(5)    4659
      7454.4   44(5)    4660
      7456.0   43(5)    4661
      7457.6   43(5)    4662
      7459.2   38(5)    4663
      7460.8   39(5)    4664
      7462.4   44(5)    4665
      7464.0   39(5)    4666
      7465.6   43(5)    4667
      7467.2   38(5)    4668
      7468.8   36(5)    4669
      7470.4   40(5)    4670
      7472.0   41(5)    4671
      7473.6   45(5)    4672
      7475.2   31(4)    4673
      7476.8   40(5)    4674
      7478.4   33(5)    4675
      7480.0   32(4)    4676
      7481.6   35(5)    4677
      7483.2   40(5)    4678
      7484.8   43(5)    4679
      7486.4   41(5)    4680
      7488.0   37(5)    4681
      7489.6   37(5)    4682
      7491.2   36(5)    4683
      7492.8   43(5)    4684
      7494.4   44(5)    4685
      7496.0   39(5)    4686
      7497.6   33(5)    4687
      7499.2   37(5)    4688
      7500.8   44(5)    4689
      7502.4   43(5)    4690
      7504.0   48(5)    4691
      7505.6   40(5)    4692
      7507.2   37(5)    4693
      7508.8   32(4)    4694
      7510.4   38(5)    4695
      7512.0   43(5)    4696
      7513.6   42(5)    4697
      7515.2   46(5)    4698
      7516.8   43(5)    4699
      7518.4   37(5)    4700
      7520.0   39(5)    4701
      7521.6   38(5)    4702
      7523.2   43(5)    4703
      7524.8   37(5)    4704
      7526.4   34(5)    4705
      7528.0   37(5)    4706
      7529.6   34(5)    4707
      7531.2   39(5)    4708
      7532.8   40(5)    4709
      7534.4   36(5)    4710
      7536.0   42(5)    4711
      7537.6   38(5)    4712
      7539.2   41(5)    4713
      7540.8   43(5)    4714
      7542.4   41(5)    4715
      7544.0   41(5)    4716
      7545.6   40(5)    4717
      7547.2   38(5)    4718
      7548.8   41(5)    4719
      7550.4   38(5)    4720
      7552.0   41(5)    4721
      7553.6   42(5)    4722
      7555.2   39(5)    4723
      7556.8   29(4)    4724
      7558.4   35(5)    4725
      7560.0   38(5)    4726
      7561.6   34(5)    4727
      7563.2   41(5)    4728
      7564.8   46(5)    4729
      7566.4   40(5)    4730
      7568.0   38(5)    4731
      7569.6   46(5)    4732
      7571.2   38(5)    4733
      7572.8   37(5)    4734
      7574.4   41(5)    4735
      7576.0   43(5)    4736
      7577.6   34(5)    4737
      7579.2   31(4)    4738
      7580.8   37(5)    4739
      7582.4   35(5)    4740
      7584.0   39(5)    4741
      7585.6   44(5)    4742
      7587.2   47(5)    4743
      7588.8   36(5)    4744
      7590.4   38(5)    4745
      7592.0   38(5)    4746
      7593.6   48(5)    4747
      7595.2   41(5)    4748
      7596.8   42(5)    4749
      7598.4   34(5)    4750
      7600.0   38(5)    4751
      7601.6   38(5)    4752
      7603.2   41(5)    4753
      7604.8   44(5)    4754
      7606.4   44(5)    4755
      7608.0   45(5)    4756
      7609.6   48(5)    4757
      7611.2   41(5)    4758
      7612.8   41(5)    4759
      7614.4   56(6)    4760
      7616.0   46(5)    4761
      7617.6   41(5)    4762
      7619.2   41(5)    4763
      7620.8   46(5)    4764
      7622.4   48(5)    4765
      7624.0   48(5)    4766
      7625.6   50(6)    4767
      7627.2   68(7)    4768
      7628.8   66(6)    4769
      7630.4   66(6)    4770
      7632.0   66(6)    4771
      7633.6   54(6)    4772
      7635.2   73(7)    4773
      7636.8   84(7)    4774
      7638.4   73(7)    4775
      7640.0   76(7)    4776
      7641.6   78(7)    4777
      7643.2   76(7)    4778
      7644.8   79(7)    4779
      7646.4   83(7)    4780
      7648.0   97(8)    4781
      7649.6   104(8)    4782
      7651.2   117(9)    4783
      7652.8   141(9)    4784
      7654.4   146(10)    4785
      7656.0   151(10)    4786
      7657.6   167(10)    4787
      7659.2   172(10)    4788
      7660.8   208(11)    4789
      7662.4   220(12)    4790
      7664.0   237(12)    4791
      7665.6   251(13)    4792
      7667.2   286(13)    4793
      7668.8   306(14)    4794
      7670.4   303(14)    4795
      7672.0   343(15)    4796
      7673.6   385(16)    4797
      7675.2   420(16)    4798
      7676.8   416(16)    4799
      7678.4   450(17)    4800
      7680.0   473(17)    4801
      7681.6   485(17)    4802
      7683.2   483(17)    4803
      7684.8   528(18)    4804
      7686.4   538(18)    4805
      7688.0   557(19)    4806
      7689.6   591(19)    4807
      7691.2   614(20)    4808
      7692.8   619(20)    4809
      7694.4   659(20)    4810
      7696.0   651(20)    4811
      7697.6   628(20)    4812
      7699.2   614(20)    4813
      7700.8   607(19)    4814
      7702.4   632(20)    4815
      7704.0   642(20)    4816
      7705.6   609(20)    4817
      7707.2   596(19)    4818
      7708.8   567(19)    4819
      7710.4   581(19)    4820
      7712.0   566(19)    4821
      7713.6   538(18)    4822
      7715.2   531(18)    4823
      7716.8   508(18)    4824
      7718.4   481(17)    4825
      7720.0   473(17)    4826
      7721.6   445(17)    4827
      7723.2   431(16)    4828
      7724.8   423(16)    4829
      7726.4   388(16)    4830
      7728.0   357(15)    4831
      7729.6   328(14)    4832
      7731.2   299(14)    4833
      7732.8   294(14)    4834
      7734.4   286(13)    4835
      7736.0   262(13)    4836
      7737.6   243(12)    4837
      7739.2   239(12)    4838
      7740.8   233(12)    4839
      7742.4   232(12)    4840
      7744.0   211(11)    4841
      7745.6   189(11)    4842
      7747.2   174(10)    4843
      7748.8   178(11)    4844
      7750.4   146(10)    4845
      7752.0   152(10)    4846
      7753.6   144(9)    4847
      7755.2   136(9)    4848
      7756.8   106(8)    4849
      7758.4   114(8)    4850
      7760.0   104(8)    4851
      7761.6   99(8)    4852
      7763.2   93(8)    4853
      7764.8   91(8)    4854
      7766.4   83(7)    4855
      7768.0   90(8)    4856
      7769.6   91(8)    4857
      7771.2   79(7)    4858
      7772.8   75(7)    4859
      7774.4   66(6)    4860
      7776.0   66(6)    4861
      7777.6   66(6)    4862
      7779.2   64(6)    4863
      7780.8   61(6)    4864
      7782.4   70(7)    4865
      7784.0   55(6)    4866
      7785.6   66(6)    4867
      7787.2   53(6)    4868
      7788.8   65(6)    4869
      7790.4   53(6)    4870
      7792.0   49(6)    4871
      7793.6   48(5)    4872
      7795.2   52(6)    4873
      7796.8   57(6)    4874
      7798.4   47(5)    4875
      7800.0   44(5)    4876
      7801.6   46(5)    4877
      7803.2   44(5)    4878
      7804.8   56(6)    4879
      7806.4   44(5)    4880
      7808.0   37(5)    4881
      7809.6   46(5)    4882
      7811.2   45(5)    4883
      7812.8   47(5)    4884
      7814.4   42(5)    4885
      7816.0   46(5)    4886
      7817.6   38(5)    4887
      7819.2   33(5)    4888
      7820.8   34(5)    4889
      7822.4   36(5)    4890
      7824.0   44(5)    4891
      7825.6   33(5)    4892
      7827.2   36(5)    4893
      7828.8   39(5)    4894
      7830.4   51(6)    4895
      7832.0   50(6)    4896
      7833.6   37(5)    4897
      7835.2   40(5)    4898
      7836.8   41(5)    4899
      7838.4   39(5)    4900
      7840.0   31(4)    4901
      7841.6   41(5)    4902
      7843.2   41(5)    4903
      7844.8   24(4)    4904
      7846.4   37(5)    4905
      7848.0   43(5)    4906
      7849.6   29(4)    4907
      7851.2   39(5)    4908
      7852.8   33(5)    4909
      7854.4   38(5)    4910
      7856.0   38(5)    4911
      7857.6   38(5)    4912
      7859.2   30(4)    4913
      7860.8   36(5)    4914
      7862.4   41(5)    4915
      7864.0   38(5)    4916
      7865.6   34(5)    4917
      7867.2   39(5)    4918
      7868.8   41(5)    4919
      7870.4   39(5)    4920
      7872.0   36(5)    4921
      7873.6   30(4)    4922
      7875.2   33(5)    4923
      7876.8   43(5)    4924
      7878.4   29(4)    4925
      7880.0   33(5)    4926
      7881.6   36(5)    4927
      7883.2   40(5)    4928
      7884.8   33(5)    4929
      7886.4   39(5)    4930
      7888.0   31(4)    4931
      7889.6   33(5)    4932
      7891.2   33(5)    4933
      7892.8   33(5)    4934
      7894.4   34(5)    4935
      7896.0   36(5)    4936
      7897.6   32(4)    4937
      7899.2   33(5)    4938
      7900.8   29(4)    4939
      7902.4   31(4)    4940
      7904.0   28(4)    4941
      7905.6   28(4)    4942
      7907.2   30(4)    4943
      7908.8   38(5)    4944
      7910.4   34(5)    4945
      7912.0   35(5)    4946
      7913.6   35(5)    4947
      7915.2   27(4)    4948
      7916.8   29(4)    4949
      7918.4   26(4)    4950
      7920.0   29(4)    4951
      7921.6   41(5)    4952
      7923.2   31(4)    4953
      7924.8   34(5)    4954
      7926.4   30(4)    4955
      7928.0   28(4)    4956
      7929.6   33(5)    4957
      7931.2   37(5)    4958
      7932.8   33(5)    4959
      7934.4   29(4)    4960
      7936.0   36(5)    4961
      7937.6   29(4)    4962
      7939.2   25(4)    4963
      7940.8   36(5)    4964
      7942.4   28(4)    4965
      7944.0   37(5)    4966
      7945.6   33(5)    4967
      7947.2   31(4)    4968
      7948.8   26(4)    4969
      7950.4   29(4)    4970
      7952.0   38(5)    4971
      7953.6   29(4)    4972
      7955.2   30(4)    4973
      7956.8   34(5)    4974
      7958.4   29(4)    4975
      7960.0   28(4)    4976
      7961.6   29(4)    4977
      7963.2   25(4)    4978
      7964.8   35(5)    4979
      7966.4   31(4)    4980
      7968.0   25(4)    4981
      7969.6   32(4)    4982
      7971.2   33(5)    4983
      7972.8   33(5)    4984
      7974.4   32(4)    4985
      7976.0   31(4)    4986
      7977.6   28(4)    4987
      7979.2   26(4)    4988
      7980.8   24(4)    4989
      7982.4   30(4)    4990
      7984.0   35(5)    4991
      7985.6   39(5)    4992
      7987.2   31(4)    4993
      7988.8   28(4)    4994
      7990.4   31(4)    4995
      7992.0   28(4)    4996
      7993.6   32(4)    4997
      7995.2   28(4)    4998
      7996.8   29(4)    4999
      7998.4   28(4)    5000
      8000.0   26(4)    5001
      8001.6   24(4)    5002
      8003.2   21(4)    5003
      8004.8   32(4)    5004
      8006.4   31(4)    5005
      8008.0   36(5)    5006
      8009.6   29(4)    5007
      8011.2   26(4)    5008
      8012.8   27(4)    5009
      8014.4   24(4)    5010
      8016.0   29(4)    5011
      8017.6   24(4)    5012
      8019.2   26(4)    5013
      8020.8   27(4)    5014
      8022.4   29(4)    5015
      8024.0   21(4)    5016
      8025.6   35(5)    5017
      8027.2   33(5)    5018
      8028.8   33(5)    5019
      8030.4  19.4(35)    5020
      8032.0   25(4)    5021
      8033.6   26(4)    5022
      8035.2   28(4)    5023
      8036.8   31(4)    5024
      8038.4   28(4)    5025
      8040.0   23(4)    5026
      8041.6   31(4)    5027
      8043.2   29(4)    5028
      8044.8   29(4)    5029
      8046.4   29(4)    5030
      8048.0   24(4)    5031
      8049.6   29(4)    5032
      8051.2   24(4)    5033
      8052.8   35(5)    5034
      8054.4   23(4)    5035
      8056.0   23(4)    5036
      8057.6   31(4)    5037
      8059.2   26(4)    5038
      8060.8   23(4)    5039
      8062.4   24(4)    5040
      8064.0   21(4)    5041
      8065.6   25(4)    5042
      8067.2   28(4)    5043
      8068.8   28(4)    5044
      8070.4   25(4)    5045
      8072.0   26(4)    5046
      8073.6   26(4)    5047
      8075.2   24(4)    5048
      8076.8   28(4)    5049
      8078.4   26(4)    5050
      8080.0   28(4)    5051
      8081.6   34(5)    5052
      8083.2   29(4)    5053
      8084.8   29(4)    5054
      8086.4   26(4)    5055
      8088.0   22(4)    5056
      8089.6   31(4)    5057
      8091.2   21(4)    5058
      8092.8   25(4)    5059
      8094.4   21(4)    5060
      8096.0   28(4)    5061
      8097.6   27(4)    5062
      8099.2   26(4)    5063
      8100.8   24(4)    5064
      8102.4   26(4)    5065
      8104.0   28(4)    5066
      8105.6   26(4)    5067
      8107.2   24(4)    5068
      8108.8   26(4)    5069
      8110.4   29(4)    5070
      8112.0   25(4)    5071
      8113.6   28(4)    5072
      8115.2   21(4)    5073
      8116.8   22(4)    5074
      8118.4   29(4)    5075
      8120.0   21(4)    5076
      8121.6   20(4)    5077
      8123.2   24(4)    5078
      8124.8   27(4)    5079
      8126.4   27(4)    5080
      8128.0   25(4)    5081
      8129.6   26(4)    5082
      8131.2   26(4)    5083
      8132.8   20(4)    5084
      8134.4   21(4)    5085
      8136.0   20(4)    5086
      8137.6   21(4)    5087
      8139.2   22(4)    5088
      8140.8   22(4)    5089
      8142.4   21(4)    5090
      8144.0   30(4)    5091
      8145.6  19.4(35)    5092
      8147.2   29(4)    5093
      8148.8   26(4)    5094
      8150.4   21(4)    5095
      8152.0   23(4)    5096
      8153.6   23(4)    5097
      8155.2   31(4)    5098
      8156.8   22(4)    5099
      8158.4   29(4)    5100
      8160.0   23(4)    5101
      8161.6   21(4)    5102
      8163.2   23(4)    5103
      8164.8   24(4)    5104
      8166.4   24(4)    5105
      8168.0   28(4)    5106
      8169.6  16.9(32)    5107
      8171.2  19.4(35)    5108
      8172.8   23(4)    5109
      8174.4   22(4)    5110
      8176.0   24(4)    5111
      8177.6   25(4)    5112
      8179.2   26(4)    5113
      8180.8   21(4)    5114
      8182.4   22(4)    5115
      8184.0   26(4)    5116
      8185.6   23(4)    5117
      8187.2   29(4)    5118
      8188.8   30(4)    5119
      8190.4   21(4)    5120
_pd_meas_number_of_points              4651

#---- calculated data loop -----

loop_
      _pd_proc_d_spacing
      _pd_proc_intensity_total
      _pd_proc_ls_weight
      _pd_proc_intensity_bkg_calc
      _pd_calc_intensity_total
      _pd_proc_point_id
   0.45802    0.778(9)    12931.    0.4211    0.7851        1
   0.45875    0.880(9)    11421.    0.4206    0.8992        2
   0.45949    0.890(9)    11288.    0.4201    0.9062        3
   0.46022    0.816(9)    12327.    0.4196    0.8249        4
   0.46095    0.709(8)    14193.    0.4191    0.7178        5
   0.46168    0.601(8)    16748.    0.4186    0.6240        6
   0.46242    0.539(7)    18683.    0.4181    0.5557        7
   0.46315    0.503(7)    20015.    0.4177    0.5120        8
   0.46388    0.499(7)    20188.    0.4172    0.4896        9
   0.46461    0.493(7)    20439.    0.4167    0.4852       10
   0.46535    0.498(7)    20230.    0.4163    0.4900       11
   0.46608    0.503(7)    20026.    0.4158    0.4877       12
   0.46681    0.492(7)    20458.    0.4153    0.4768       13
   0.46754    0.482(7)    20876.    0.4149    0.4711       14
   0.46828    0.520(7)    19340.    0.4144    0.4861       15
   0.46901    0.558(7)    18013.    0.4140    0.5376       16
   0.46974    0.645(8)    15577.    0.4136    0.6304       17
   0.47047    0.740(9)    13559.    0.4131    0.7310       18
   0.47121    0.784(9)    12796.    0.4127    0.7776       19
   0.47194    0.769(9)    13036.    0.4123    0.7469       20
   0.47267    0.683(8)    14692.    0.4119    0.6806       21
   0.47340    0.630(8)    15932.    0.4114    0.6261       22
   0.47414    0.585(8)    17159.    0.4110    0.5924       23
   0.47487    0.554(7)    18120.    0.4106    0.5609       24
   0.47560    0.524(7)    19173.    0.4102    0.5233       25
   0.47633    0.477(7)    21071.    0.4098    0.4887       26
   0.47707    0.466(7)    21530.    0.4094    0.4635       27
   0.47780    0.445(7)    22580.    0.4090    0.4473       28
   0.47853    0.448(7)    22440.    0.4087    0.4386       29
   0.47926    0.449(7)    22341.    0.4083    0.4354       30
   0.48000    0.441(7)    22751.    0.4079    0.4335       31
   0.48073    0.435(7)    23075.    0.4075    0.4292       32
   0.48146    0.422(6)    23784.    0.4071    0.4233       33
   0.48219    0.432(7)    23232.    0.4068    0.4179       34
   0.48293    0.417(6)    24072.    0.4064    0.4140       35
   0.48366    0.436(7)    23035.    0.4060    0.4127       36
   0.48439    0.431(7)    23272.    0.4057    0.4127       37
   0.48512    0.431(7)    23264.    0.4053    0.4173       38
   0.48585    0.452(7)    22186.    0.4050    0.4308       39
   0.48659    0.480(7)    20882.    0.4046    0.4614       40
   0.48732    0.539(7)    18610.    0.4043    0.5151       41
   0.48805    0.597(8)    16782.    0.4039    0.5839       42
   0.48878    0.645(8)    15528.    0.4036    0.6354       43
   0.48952    0.642(8)    15607.    0.4033    0.6468       44
   0.49025    0.625(8)    16032.    0.4029    0.6300       45
   0.49098    0.631(8)    15875.    0.4026    0.6245       46
   0.49171    0.667(8)    15028.    0.4023    0.6665       47
   0.49245    0.747(9)    13392.    0.4019    0.7583       48
   0.49318    0.843(9)    11861.    0.4016    0.8520       49
   0.49391    0.875(9)    11422.    0.4013    0.8854       50
   0.49464    0.846(9)    11822.    0.4010    0.8473       51
   0.49538    0.756(9)    13249.    0.4007    0.7736       52
   0.49611    0.673(8)    14881.    0.4003    0.6928       53
   0.49684    0.584(8)    17158.    0.4000    0.6165       54
   0.49757    0.532(7)    18837.    0.3997    0.5534       55
   0.49831    0.496(7)    20216.    0.3994    0.5066       56
   0.49904    0.461(7)    21750.    0.3991    0.4737       57
   0.49977    0.450(7)    22305.    0.3988    0.4506       58
   0.50050    0.423(6)    23741.    0.3985    0.4346       59
   0.50124    0.411(6)    24410.    0.3982    0.4235       60
   0.50197    0.413(6)    24329.    0.3979    0.4155       61
   0.50270    0.412(6)    24343.    0.3976    0.4109       62
   0.50343    0.412(6)    24386.    0.3974    0.4092       63
   0.50417    0.412(6)    24376.    0.3971    0.4116       64
   0.50490    0.418(6)    24030.    0.3968    0.4202       65
   0.50563    0.424(6)    23693.    0.3965    0.4356       66
   0.50636    0.449(7)    22376.    0.3962    0.4527       67
   0.50710    0.479(7)    20946.    0.3959    0.4704       68
   0.50783    0.484(7)    20720.    0.3957    0.4859       69
   0.50856    0.489(7)    20532.    0.3954    0.4948       70
   0.50929    0.485(7)    20707.    0.3951    0.4910       71
   0.51003    0.468(7)    21450.    0.3948    0.4753       72
   0.51076    0.442(7)    22718.    0.3946    0.4557       73
   0.51149    0.418(6)    24036.    0.3943    0.4385       74
   0.51222    0.415(6)    24212.    0.3940    0.4255       75
   0.51295    0.395(6)    25461.    0.3938    0.4161       76
   0.51369    0.389(6)    25855.    0.3935    0.4094       77
   0.51442    0.387(6)    25998.    0.3933    0.4045       78
   0.51515    0.380(6)    26486.    0.3930    0.4010       79
   0.51588    0.394(6)    25519.    0.3927    0.3984       80
   0.51662    0.386(6)    26016.    0.3925    0.3965       81
   0.51735    0.396(6)    25411.    0.3922    0.3951       82
   0.51808    0.388(6)    25896.    0.3920    0.3941       83
   0.51881    0.384(6)    26188.    0.3917    0.3933       84
   0.51955    0.383(6)    26232.    0.3915    0.3928       85
   0.52028    0.384(6)    26182.    0.3912    0.3927       86
   0.52101    0.395(6)    25492.    0.3910    0.3933       87
   0.52174    0.385(6)    26128.    0.3907    0.3955       88
   0.52248    0.403(6)    24934.    0.3905    0.4010       89
   0.52321    0.413(6)    24349.    0.3903    0.4129       90
   0.52394    0.434(7)    23180.    0.3900    0.4317       91
   0.52467    0.450(7)    22334.    0.3898    0.4505       92
   0.52541    0.450(7)    22371.    0.3895    0.4577       93
   0.52614    0.440(7)    22860.    0.3893    0.4518       94
   0.52687    0.448(7)    22442.    0.3891    0.4426       95
   0.52760    0.429(7)    23448.    0.3888    0.4405       96
   0.52834    0.451(7)    22309.    0.3886    0.4540       97
   0.52907    0.499(7)    20152.    0.3884    0.4932       98
   0.52980    0.565(7)    17804.    0.3882    0.5651       99
   0.53053    0.676(8)    14856.    0.3879    0.6609      100
   0.53127    0.753(9)    13328.    0.3877    0.7502      101
   0.53200    0.812(9)    12350.    0.3875    0.7968      102
   0.53273    0.781(9)    12848.    0.3873    0.7837      103
   0.53346    0.711(8)    14130.    0.3870    0.7280      104
   0.53420    0.654(8)    15360.    0.3868    0.6684      105
   0.53493    0.611(8)    16447.    0.3866    0.6369      106
   0.53566    0.618(8)    16253.    0.3864    0.6464      107
   0.53639    0.684(8)    14696.    0.3861    0.6887      108
   0.53713    0.724(8)    13883.    0.3859    0.7316      109
   0.53786    0.725(8)    13853.    0.3857    0.7388      110
   0.53859    0.702(8)    14321.    0.3855    0.7011      111
   0.53932    0.636(8)    15798.    0.3853    0.6391      112
   0.54005    0.573(8)    17548.    0.3851    0.5774      113
   0.54079    0.505(7)    19911.    0.3849    0.5274      114
   0.54152    0.475(7)    21200.    0.3847    0.4905      115
   0.54225    0.456(7)    22093.    0.3844    0.4648      116
   0.54298    0.439(7)    22918.    0.3842    0.4497      117
   0.54372    0.437(7)    23029.    0.3840    0.4459      118
   0.54445    0.460(7)    21882.    0.3838    0.4540      119
   0.54518    0.474(7)    21236.    0.3836    0.4686      120
   0.54591    0.484(7)    20810.    0.3834    0.4767      121
   0.54665    0.479(7)    21022.    0.3832    0.4702      122
   0.54738    0.446(7)    22581.    0.3830    0.4538      123
   0.54811    0.443(7)    22759.    0.3828    0.4366      124
   0.54884    0.431(7)    23362.    0.3826    0.4226      125
   0.54958    0.413(6)    24414.    0.3824    0.4126      126
   0.55031    0.415(6)    24256.    0.3822    0.4063      127
   0.55104    0.412(6)    24466.    0.3820    0.4039      128
   0.55177    0.410(6)    24579.    0.3818    0.4071      129
   0.55251    0.428(7)    23557.    0.3816    0.4187      130
   0.55324    0.457(7)    22031.    0.3814    0.4414      131
   0.55397    0.486(7)    20720.    0.3812    0.4747      132
   0.55470    0.537(7)    18728.    0.3810    0.5190      133
   0.55544    0.585(8)    17191.    0.3808    0.5810      134
   0.55617    0.663(8)    15157.    0.3806    0.6582      135
   0.55690    0.711(8)    14132.    0.3804    0.7253      136
   0.55763    0.739(9)    13598.    0.3802    0.7490      137
   0.55837    0.704(8)    14278.    0.3801    0.7207      138
   0.55910    0.624(8)    16119.    0.3799    0.6615      139
   0.55983    0.571(8)    17620.    0.3797    0.5979      140
   0.56056    0.514(7)    19570.    0.3795    0.5439      141
   0.56130    0.488(7)    20612.    0.3793    0.5023      142
   0.56203    0.458(7)    21987.    0.3791    0.4709      143
   0.56276    0.445(7)    22637.    0.3789    0.4474      144
   0.56349    0.423(6)    23821.    0.3787    0.4300      145
   0.56423    0.413(6)    24373.    0.3786    0.4173      146
   0.56496    0.399(6)    25256.    0.3784    0.4084      147
   0.56569    0.403(6)    24960.    0.3782    0.4031      148
   0.56642    0.397(6)    25368.    0.3780    0.4020      149
   0.56716    0.410(6)    24516.    0.3778    0.4068      150
   0.56789    0.428(7)    23526.    0.3776    0.4184      151
   0.56862    0.447(7)    22526.    0.3775    0.4333      152
   0.56935    0.456(7)    22060.    0.3773    0.4429      153
   0.57008    0.461(7)    21798.    0.3771    0.4411      154
   0.57082    0.431(7)    23310.    0.3769    0.4310      155
   0.57155    0.433(7)    23198.    0.3767    0.4188      156
   0.57228    0.409(6)    24579.    0.3766    0.4086      157
   0.57301    0.402(6)    25004.    0.3764    0.4008      158
   0.57375    0.394(6)    25521.    0.3762    0.3951      159
   0.57448    0.393(6)    25553.    0.3760    0.3908      160
   0.57521    0.405(6)    24824.    0.3759    0.3895      161
   0.57594    0.405(6)    24816.    0.3757    0.3914      162
   0.57668    0.408(6)    24603.    0.3755    0.3983      163
   0.57741    0.440(7)    22821.    0.3753    0.4118      164
   0.57814    0.453(7)    22190.    0.3752    0.4289      165
   0.57887    0.451(7)    22266.    0.3750    0.4416      166
   0.57961    0.442(7)    22694.    0.3748    0.4426      167
   0.58034    0.450(7)    22300.    0.3746    0.4343      168
   0.58107    0.445(7)    22551.    0.3745    0.4236      169
   0.58180    0.430(7)    23353.    0.3743    0.4159      170
   0.58254    0.427(7)    23496.    0.3741    0.4146      171
   0.58327    0.436(7)    22993.    0.3740    0.4236      172
   0.58400    0.461(7)    21736.    0.3738    0.4509      173
   0.58473    0.526(7)    19030.    0.3736    0.5082      174
   0.58547    0.657(8)    15241.    0.3734    0.6043      175
   0.58620    0.762(9)    13117.    0.3733    0.7291      176
   0.58693    0.887(9)    11255.    0.3731    0.8441      177
   0.58766    0.908(10)   10991.    0.3729    0.9029      178
   0.58840    0.910(10)   10964.    0.3728    0.8864      179
   0.58913    0.841(9)    11867.    0.3726    0.8179      180
   0.58986    0.746(9)    13386.    0.3724    0.7353      181
   0.59059    0.663(8)    15077.    0.3723    0.6659      182
   0.59133    0.617(8)    16205.    0.3721    0.6237      183
   0.59206    0.620(8)    16107.    0.3719    0.6201      184
   0.59279    0.668(8)    14938.    0.3718    0.6721      185
   0.59352    0.825(9)    12085.    0.3716    0.7985      186
   0.59426    1.040(10)   9571.     0.3715    0.9976      187
   0.59499    1.262(11)   7869.     0.3713    1.2200      188
   0.59572    1.400(12)   7086.     0.3711    1.3759      189
   0.59645    1.420(12)   6981.     0.3710    1.3980      190
   0.59718    1.307(11)   7588.     0.3708    1.2955      191
   0.59792    1.128(11)   8800.     0.3706    1.1329      192
   0.59865    0.956(10)   10395.    0.3705    0.9698      193
   0.59938    0.796(9)    12489.    0.3703    0.8327      194
   0.60011    0.693(8)    14357.    0.3702    0.7251      195
   0.60085    0.604(8)    16486.    0.3700    0.6423      196
   0.60158    0.560(7)    17779.    0.3698    0.5790      197
   0.60231    0.516(7)    19274.    0.3697    0.5311      198
   0.60304    0.497(7)    20032.    0.3695    0.4955      199
   0.60378    0.481(7)    20683.    0.3694    0.4707      200
   0.60451    0.467(7)    21295.    0.3692    0.4551      201
   0.60524    0.469(7)    21178.    0.3691    0.4527      202
   0.60597    0.476(7)    20862.    0.3689    0.4602      203
   0.60671    0.488(7)    20351.    0.3687    0.4702      204
   0.60744    0.501(7)    19804.    0.3686    0.4728      205
   0.60817    0.485(7)    20441.    0.3684    0.4637      206
   0.60890    0.450(7)    22063.    0.3683    0.4475      207
   0.60964    0.450(7)    22044.    0.3681    0.4306      208
   0.61037    0.430(7)    23032.    0.3680    0.4164      209
   0.61110    0.420(7)    23598.    0.3678    0.4051      210
   0.61183    0.413(6)    23981.    0.3677    0.3964      211
   0.61257    0.393(6)    25177.    0.3675    0.3897      212
   0.61330    0.393(6)    25219.    0.3674    0.3815      213
   0.61403    0.390(6)    25372.    0.3672    0.3781      214
   0.61476    0.390(6)    25368.    0.3670    0.3758      215
   0.61550    0.380(6)    26005.    0.3669    0.3740      216
   0.61623    0.372(6)    26560.    0.3667    0.3731      217
   0.61696    0.370(6)    26672.    0.3666    0.3732      218
   0.61769    0.385(6)    25677.    0.3664    0.3751      219
   0.61843    0.391(6)    25226.    0.3663    0.3802      220
   0.61916    0.399(6)    24727.    0.3661    0.3918      221
   0.61989    0.412(6)    23900.    0.3660    0.4143      222
   0.62062    0.458(7)    21504.    0.3658    0.4528      223
   0.62136    0.521(7)    18881.    0.3657    0.5079      224
   0.62209    0.587(8)    16741.    0.3655    0.5694      225
   0.62282    0.624(8)    15731.    0.3654    0.6185      226
   0.62355    0.649(8)    15113.    0.3652    0.6394      227
   0.62428    0.635(8)    15440.    0.3651    0.6327      228
   0.62502    0.611(8)    16051.    0.3649    0.6143      229
   0.62575    0.601(8)    16319.    0.3648    0.5988      230
   0.62648    0.560(8)    17504.    0.3646    0.5886      231
   0.62721    0.552(8)    17753.    0.3645    0.5748      232
   0.62795    0.535(7)    18287.    0.3643    0.5504      233
   0.62868    0.502(7)    19501.    0.3642    0.5187      234
   0.62941    0.469(7)    20840.    0.3641    0.4872      235
   0.63014    0.452(7)    21610.    0.3639    0.4603      236
   0.63088    0.430(7)    22724.    0.3638    0.4389      237
   0.63161    0.405(6)    24094.    0.3636    0.4222      238
   0.63234    0.406(6)    24040.    0.3635    0.4092      239
   0.63307    0.384(6)    25414.    0.3633    0.3993      240
   0.63381    0.378(6)    25809.    0.3632    0.3918      241
   0.63454    0.376(6)    25938.    0.3630    0.3867      242
   0.63527    0.370(6)    26321.    0.3629    0.3841      243
   0.63600    0.369(6)    26367.    0.3627    0.3850      244
   0.63674    0.380(6)    25585.    0.3626    0.3914      245
   0.63747    0.409(6)    23758.    0.3625    0.4065      246
   0.63820    0.421(7)    23070.    0.3623    0.4333      247
   0.63893    0.465(7)    20883.    0.3622    0.4686      248
   0.63967    0.494(7)    19630.    0.3620    0.5001      249
   0.64040    0.510(7)    18977.    0.3619    0.5133      250
   0.64113    0.493(7)    19646.    0.3617    0.5047      251
   0.64186    0.477(7)    20294.    0.3616    0.4831      252
   0.64260    0.443(7)    21852.    0.3615    0.4592      253
   0.64333    0.427(7)    22635.    0.3613    0.4383      254
   0.64406    0.409(7)    23640.    0.3612    0.4216      255
   0.64479    0.395(6)    24415.    0.3610    0.4081      256
   0.64553    0.385(6)    25083.    0.3609    0.3977      257
   0.64626    0.368(6)    26174.    0.3608    0.3896      258
   0.64699    0.364(6)    26448.    0.3606    0.3832      259
   0.64772    0.360(6)    26759.    0.3605    0.3782      260
   0.64846    0.360(6)    26695.    0.3603    0.3742      261
   0.64919    0.354(6)    27187.    0.3602    0.3710      262
   0.64992    0.352(6)    27282.    0.3601    0.3685      263
   0.65065    0.354(6)    27071.    0.3599    0.3665      264
   0.65138    0.350(6)    27415.    0.3598    0.3650      265
   0.65212    0.354(6)    27089.    0.3596    0.3637      266
   0.65285    0.362(6)    26429.    0.3595    0.3627      267
   0.65358    0.369(6)    25886.    0.3594    0.3618      268
   0.65431    0.357(6)    26760.    0.3592    0.3612      269
   0.65505    0.343(6)    27884.    0.3591    0.3607      270
   0.65578    0.345(6)    27677.    0.3589    0.3603      271
   0.65651    0.345(6)    27639.    0.3588    0.3600      272
   0.65724    0.345(6)    27643.    0.3587    0.3599      273
   0.65798    0.344(6)    27639.    0.3585    0.3601      274
   0.65871    0.349(6)    27283.    0.3584    0.3609      275
   0.65944    0.358(6)    26556.    0.3583    0.3626      276
   0.66017    0.350(6)    27099.    0.3581    0.3663      277
   0.66091    0.364(6)    26080.    0.3580    0.3731      278
   0.66164    0.373(6)    25437.    0.3579    0.3837      279
   0.66237    0.390(6)    24290.    0.3577    0.3973      280
   0.66310    0.390(6)    24267.    0.3576    0.4092      281
   0.66384    0.409(7)    23125.    0.3574    0.4145      282
   0.66457    0.404(7)    23356.    0.3573    0.4118      283
   0.66530    0.388(6)    24300.    0.3572    0.4042      284
   0.66603    0.394(6)    23897.    0.3570    0.3953      285
   0.66677    0.396(6)    23782.    0.3569    0.3874      286
   0.66750    0.383(6)    24582.    0.3568    0.3809      287
   0.66823    0.381(6)    24659.    0.3566    0.3757      288
   0.66896    0.367(6)    25555.    0.3565    0.3716      289
   0.66970    0.371(6)    25257.    0.3564    0.3683      290
   0.67043    0.379(6)    24699.    0.3562    0.3689      291
   0.67116    0.380(6)    24658.    0.3561    0.3699      292
   0.67189    0.375(6)    24933.    0.3560    0.3743      293
   0.67263    0.374(6)    24963.    0.3558    0.3849      294
   0.67336    0.405(7)    23043.    0.3557    0.4069      295
   0.67409    0.445(7)    20947.    0.3556    0.4499      296
   0.67482    0.520(7)    17897.    0.3554    0.5277      297
   0.67556    0.659(8)    14111.    0.3553    0.6553      298
   0.67629    0.855(10)   10842.    0.3552    0.8363      299
   0.67702    1.049(11)   8817.     0.3550    1.0476      300
   0.67775    1.230(12)   7504.     0.3549    1.2357      301
   0.67848    1.317(12)   7000.     0.3548    1.3421      302
   0.67922    1.315(12)   7001.     0.3547    1.3400      303
   0.67995    1.256(12)   7327.     0.3545    1.2486      304
   0.68068    1.116(11)   8248.     0.3544    1.1131      305
   0.68141    0.962(10)   9561.     0.3543    0.9734      306
   0.68215    0.827(9)    11124.    0.3541    0.8502      307
   0.68288    0.730(9)    12601.    0.3540    0.7488      308
   0.68361    0.644(8)    14268.    0.3539    0.6676      309
   0.68434    0.589(8)    15589.    0.3537    0.6028      310
   0.68508    0.531(8)    17281.    0.3536    0.5513      311
   0.68581    0.490(7)    18723.    0.3535    0.5105      312
   0.68654    0.470(7)    19499.    0.3534    0.4780      313
   0.68727    0.455(7)    20091.    0.3532    0.4522      314
   0.68801    0.428(7)    21359.    0.3531    0.4317      315
   0.68874    0.413(7)    22097.    0.3530    0.4154      316
   0.68947    0.403(7)    22630.    0.3528    0.4024      317
   0.69020    0.403(7)    22616.    0.3527    0.3921      318
   0.69094    0.383(6)    23743.    0.3526    0.3838      319
   0.69167    0.382(6)    23819.    0.3525    0.3773      320
   0.69240    0.368(6)    24711.    0.3523    0.3720      321
   0.69313    0.371(6)    24479.    0.3522    0.3679      322
   0.69387    0.369(6)    24547.    0.3521    0.3645      323
   0.69460    0.378(6)    23918.    0.3520    0.3618      324
   0.69533    0.378(6)    23926.    0.3518    0.3597      325
   0.69606    0.369(6)    24479.    0.3517    0.3579      326
   0.69680    0.367(6)    24591.    0.3516    0.3565      327
   0.69753    0.365(6)    24713.    0.3515    0.3554      328
   0.69826    0.367(6)    24550.    0.3513    0.3544      329
   0.69899    0.358(6)    25077.    0.3512    0.3543      330
   0.69973    0.364(6)    24657.    0.3511    0.3541      331
   0.70046    0.372(6)    24104.    0.3510    0.3531      332
   0.70119    0.370(6)    24198.    0.3508    0.3548      333
   0.70192    0.368(6)    24330.    0.3507    0.3584      334
   0.70266    0.383(7)    23334.    0.3506    0.3651      335
   0.70339    0.392(7)    22751.    0.3505    0.3779      336
   0.70412    0.414(7)    21520.    0.3503    0.4005      337
   0.70485    0.445(7)    19972.    0.3502    0.4365      338
   0.70559    0.491(7)    18100.    0.3501    0.4843      339
   0.70632    0.537(8)    16509.    0.3500    0.5325      340
   0.70705    0.579(8)    15293.    0.3498    0.5641      341
   0.70778    0.588(8)    15038.    0.3497    0.5683      342
   0.70851    0.584(8)    15116.    0.3496    0.5488      343
   0.70925    0.546(8)    16147.    0.3495    0.5182      344
   0.70998    0.498(8)    17698.    0.3493    0.4870      345
   0.71071    0.482(7)    18260.    0.3492    0.4599      346
   0.71144    0.457(7)    19246.    0.3491    0.4419      347
   0.71218    0.437(7)    20123.    0.3490    0.4277      348
   0.71291    0.436(7)    20129.    0.3489    0.4202      349
   0.71364    0.425(7)    20615.    0.3487    0.4215      350
   0.71437    0.441(7)    19822.    0.3486    0.4360      351
   0.71511    0.490(7)    17822.    0.3485    0.4716      352
   0.71584    0.549(8)    15880.    0.3484    0.5391      353
   0.71657    0.675(9)    12896.    0.3482    0.6493      354
   0.71730    0.840(10)   10338.    0.3481    0.8039      355
   0.71804    1.022(11)   8479.     0.3480    0.9826      356
   0.71877    1.172(12)   7375.     0.3479    1.1452      357
   0.71950    1.251(12)   6900.     0.3478    1.2466      358
   0.72023    1.284(12)   6709.     0.3476    1.2634      359
   0.72097    1.240(12)   6941.     0.3475    1.2064      360
   0.72170    1.128(11)   7625.     0.3474    1.1110      361
   0.72243    1.035(11)   8305.     0.3473    1.0152      362
   0.72316    0.935(10)   9178.     0.3472    0.9456      363
   0.72390    0.909(10)   9439.     0.3470    0.9121      364
   0.72463    0.887(10)   9657.     0.3469    0.9056      365
   0.72536    0.918(10)   9316.     0.3468    0.9025      366
   0.72609    0.871(10)   9802.     0.3467    0.8786      367
   0.72683    0.832(10)   10254.    0.3466    0.8263      368
   0.72756    0.773(10)   11021.    0.3465    0.7561      369
   0.72829    0.691(9)    12324.    0.3463    0.6838      370
   0.72902    0.637(9)    13351.    0.3462    0.6191      371
   0.72976    0.557(8)    15262.    0.3461    0.5658      372
   0.73049    0.525(8)    16157.    0.3460    0.5226      373
   0.73122    0.486(8)    17436.    0.3459    0.4878      374
   0.73195    0.478(8)    17726.    0.3457    0.4598      375
   0.73269    0.437(7)    19356.    0.3456    0.4373      376
   0.73342    0.416(7)    20306.    0.3455    0.4191      377
   0.73415    0.413(7)    20416.    0.3454    0.4046      378
   0.73488    0.395(7)    21324.    0.3453    0.3928      379
   0.73561    0.392(7)    21436.    0.3452    0.3834      380
   0.73635    0.394(7)    21322.    0.3450    0.3757      381
   0.73708    0.373(7)    22454.    0.3449    0.3696      382
   0.73781    0.379(7)    22092.    0.3448    0.3646      383
   0.73854    0.376(7)    22251.    0.3447    0.3606      384
   0.73928    0.366(7)    22802.    0.3446    0.3574      385
   0.74001    0.368(7)    22631.    0.3445    0.3548      386
   0.74074    0.359(7)    23159.    0.3444    0.3526      387
   0.74147    0.368(7)    22577.    0.3442    0.3488      388
   0.74221    0.363(7)    22853.    0.3441    0.3478      389
   0.74294    0.361(7)    22929.    0.3440    0.3470      390
   0.74367    0.360(7)    22952.    0.3439    0.3463      391
   0.74440    0.364(7)    22692.    0.3438    0.3457      392
   0.74514    0.357(7)    23076.    0.3437    0.3452      393
   0.74587    0.366(7)    22487.    0.3435    0.3448      394
   0.74660    0.356(7)    23123.    0.3434    0.3444      395
   0.74733    0.349(7)    23535.    0.3433    0.3433      396
   0.74807    0.340(6)    24111.    0.3432    0.3432      397
   0.74880    0.345(6)    23747.    0.3431    0.3431      398
   0.74953    0.346(7)    23623.    0.3430    0.3430      399
   0.75026    0.353(7)    23101.    0.3429    0.3429      400
   0.75100    0.361(7)    22590.    0.3428    0.3428      401
   0.75173    0.356(7)    22838.    0.3426    0.3426      402
   0.75246    0.353(7)    23029.    0.3425    0.3434      403
   0.75319    0.342(6)    23710.    0.3424    0.3440      404
   0.75393    0.348(7)    23275.    0.3423    0.3452      405
   0.75466    0.353(7)    22884.    0.3422    0.3475      406
   0.75539    0.346(7)    23343.    0.3421    0.3517      407
   0.75612    0.363(7)    22211.    0.3420    0.3594      408
   0.75686    0.386(7)    20842.    0.3419    0.3729      409
   0.75759    0.400(7)    20096.    0.3417    0.3954      410
   0.75832    0.423(7)    18968.    0.3416    0.4284      411
   0.75905    0.472(8)    16964.    0.3415    0.4690      412
   0.75979    0.511(8)    15618.    0.3414    0.5077      413
   0.76052    0.532(8)    14999.    0.3413    0.5320      414
   0.76125    0.541(8)    14711.    0.3412    0.5349      415
   0.76198    0.536(8)    14825.    0.3411    0.5193      416
   0.76271    0.498(8)    15923.    0.3410    0.4942      417
   0.76345    0.470(8)    16869.    0.3409    0.4677      418
   0.76418    0.446(8)    17738.    0.3407    0.4441      419
   0.76491    0.422(7)    18731.    0.3406    0.4244      420
   0.76564    0.409(7)    19306.    0.3405    0.4084      421
   0.76638    0.399(7)    19764.    0.3404    0.3953      422
   0.76711    0.376(7)    20911.    0.3403    0.3848      423
   0.76784    0.372(7)    21120.    0.3402    0.3762      424
   0.76857    0.378(7)    20758.    0.3401    0.3692      425
   0.76931    0.365(7)    21465.    0.3400    0.3636      426
   0.77004    0.368(7)    21230.    0.3399    0.3590      427
   0.77077    0.358(7)    21796.    0.3398    0.3552      428
   0.77150    0.370(7)    21037.    0.3397    0.3522      429
   0.77224    0.361(7)    21557.    0.3395    0.3497      430
   0.77297    0.361(7)    21469.    0.3394    0.3477      431
   0.77370    0.360(7)    21519.    0.3393    0.3460      432
   0.77443    0.355(7)    21798.    0.3392    0.3447      433
   0.77517    0.366(7)    21093.    0.3391    0.3437      434
   0.77590    0.363(7)    21240.    0.3390    0.3429      435
   0.77663    0.354(7)    21726.    0.3389    0.3432      436
   0.77736    0.372(7)    20637.    0.3388    0.3436      437
   0.77810    0.364(7)    21045.    0.3387    0.3451      438
   0.77883    0.372(7)    20597.    0.3386    0.3481      439
   0.77956    0.366(7)    20885.    0.3385    0.3540      440
   0.78029    0.375(7)    20362.    0.3384    0.3646      441
   0.78103    0.405(7)    18780.    0.3383    0.3829      442
   0.78176    0.426(7)    17847.    0.3382    0.4123      443
   0.78249    0.475(8)    15978.    0.3380    0.4567      444
   0.78322    0.521(8)    14540.    0.3379    0.5222      445
   0.78396    0.626(9)    12068.    0.3378    0.6159      446
   0.78469    0.762(10)   9882.     0.3377    0.7480      447
   0.78542    0.931(11)   8072.     0.3376    0.9253      448
   0.78615    1.167(12)   6418.     0.3375    1.1396      449
   0.78689    1.363(14)   5477.     0.3374    1.3596      450
   0.78762    1.512(14)   4926.     0.3373    1.5371      451
   0.78835    1.606(15)   4626.     0.3372    1.6285      452
   0.78908    1.631(15)   4546.     0.3371    1.6173      453
   0.78981    1.548(14)   4782.     0.3370    1.5200      454
   0.79055    1.409(14)   5250.     0.3369    1.3724      455
   0.79128    1.245(13)   5937.     0.3368    1.2108      456
   0.79201    1.082(12)   6829.     0.3367    1.0589      457
   0.79274    0.924(11)   7986.     0.3366    0.9273      458
   0.79348    0.825(11)   8929.     0.3365    0.8176      459
   0.79421    0.739(10)   9965.     0.3364    0.7277      460
   0.79494    0.658(9)    11176.    0.3363    0.6544      461
   0.79567    0.593(9)    12376.    0.3362    0.5948      462
   0.79641    0.569(9)    12878.    0.3361    0.5463      463
   0.79714    0.535(9)    13681.    0.3360    0.5079      464
   0.79787    0.477(8)    15300.    0.3359    0.4765      465
   0.79860    0.470(8)    15516.    0.3358    0.4517      466
   0.79934    0.455(8)    15991.    0.3357    0.4328      467
   0.80007    0.433(8)    16783.    0.3355    0.4195      468
   0.80080    0.425(8)    17052.    0.3354    0.4125      469
   0.80153    0.417(8)    17367.    0.3353    0.4134      470
   0.80227    0.438(8)    16500.    0.3352    0.4256      471
   0.80300    0.454(8)    15887.    0.3351    0.4553      472
   0.80373    0.509(8)    14140.    0.3350    0.5119      473
   0.80446    0.604(9)    11892.    0.3349    0.6078      474
   0.80520    0.760(10)   9421.     0.3348    0.7547      475
   0.80593    0.969(12)   7367.     0.3347    0.9558      476
   0.80666    1.211(13)   5877.     0.3346    1.1961      477
   0.80739    1.435(14)   4944.     0.3345    1.4377      478
   0.80813    1.646(15)   4296.     0.3344    1.6291      479
   0.80886    1.700(16)   4152.     0.3343    1.7269      480
   0.80959    1.720(16)   4095.     0.3342    1.7161      481
   0.81032    1.658(15)   4241.     0.3341    1.6106      482
   0.81106    1.494(15)   4702.     0.3340    1.4562      483
   0.81179    1.301(14)   5395.     0.3339    1.2853      484
   0.81252    1.154(13)   6076.     0.3338    1.1233      485
   0.81325    1.007(12)   6957.     0.3337    0.9817      486
   0.81399    0.879(11)   7961.     0.3336    0.8631      487
   0.81472    0.757(10)   9233.     0.3335    0.7654      488
   0.81545    0.681(10)   10253.    0.3334    0.6856      489
   0.81618    0.615(9)    11338.    0.3333    0.6204      490
   0.81691    0.558(9)    12475.    0.3332    0.5674      491
   0.81765    0.507(9)    13690.    0.3331    0.5241      492
   0.81838    0.494(8)    14023.    0.3330    0.4889      493
   0.81911    0.455(8)    15212.    0.3329    0.4602      494
   0.81984    0.431(8)    16029.    0.3328    0.4370      495
   0.82058    0.410(8)    16826.    0.3327    0.4184      496
   0.82131    0.403(8)    17088.    0.3326    0.4038      497
   0.82204    0.389(8)    17666.    0.3325    0.3928      498
   0.82277    0.373(7)    18410.    0.3324    0.3854      499
   0.82351    0.375(7)    18232.    0.3323    0.3822      500
   0.82424    0.385(8)    17760.    0.3323    0.3841      501
   0.82497    0.390(8)    17472.    0.3322    0.3925      502
   0.82570    0.419(8)    16221.    0.3321    0.4081      503
   0.82644    0.448(8)    15159.    0.3320    0.4298      504
   0.82717    0.459(8)    14750.    0.3319    0.4527      505
   0.82790    0.483(8)    14008.    0.3318    0.4701      506
   0.82863    0.478(8)    14109.    0.3317    0.4761      507
   0.82937    0.472(8)    14266.    0.3316    0.4699      508
   0.83010    0.482(8)    13947.    0.3315    0.4550      509
   0.83083    0.458(8)    14647.    0.3314    0.4318      510
   0.83156    0.422(8)    15881.    0.3313    0.4148      511
   0.83230    0.412(8)    16226.    0.3312    0.3998      512
   0.83303    0.398(8)    16752.    0.3311    0.3873      513
   0.83376    0.383(8)    17373.    0.3310    0.3769      514
   0.83449    0.375(8)    17713.    0.3309    0.3684      515
   0.83523    0.373(7)    17793.    0.3308    0.3615      516
   0.83596    0.368(7)    17977.    0.3307    0.3558      517
   0.83669    0.347(7)    19062.    0.3306    0.3511      518
   0.83742    0.350(7)    18830.    0.3305    0.3473      519
   0.83816    0.338(7)    19471.    0.3304    0.3441      520
   0.83889    0.352(7)    18640.    0.3303    0.3415      521
   0.83962    0.342(7)    19178.    0.3302    0.3394      522
   0.84035    0.338(7)    19378.    0.3301    0.3376      523
   0.84109    0.327(7)    19960.    0.3300    0.3361      524
   0.84182    0.335(7)    19425.    0.3300    0.3349      525
   0.84255    0.331(7)    19653.    0.3299    0.3339      526
   0.84328    0.339(7)    19172.    0.3298    0.3331      527
   0.84401    0.339(7)    19121.    0.3297    0.3324      528
   0.84475    0.335(7)    19308.    0.3296    0.3318      529
   0.84548    0.333(7)    19391.    0.3295    0.3313      530
   0.84621    0.331(7)    19421.    0.3294    0.3309      531
   0.84694    0.335(7)    19154.    0.3293    0.3307      532
   0.84768    0.331(7)    19364.    0.3292    0.3305      533
   0.84841    0.335(7)    19114.    0.3291    0.3305      534
   0.84914    0.345(7)    18517.    0.3290    0.3307      535
   0.84987    0.331(7)    19255.    0.3289    0.3306      536
   0.85061    0.324(7)    19604.    0.3288    0.3317      537
   0.85134    0.351(7)    18102.    0.3287    0.3335      538
   0.85207    0.329(7)    19267.    0.3287    0.3368      539
   0.85280    0.339(7)    18642.    0.3286    0.3425      540
   0.85354    0.334(7)    18864.    0.3285    0.3521      541
   0.85427    0.340(7)    18515.    0.3284    0.3681      542
   0.85500    0.380(8)    16530.    0.3283    0.3938      543
   0.85573    0.425(8)    14755.    0.3282    0.4322      544
   0.85647    0.470(9)    13295.    0.3281    0.4837      545
   0.85720    0.530(9)    11759.    0.3280    0.5425      546
   0.85793    0.577(10)   10787.    0.3279    0.5964      547
   0.85866    0.594(10)   10454.    0.3278    0.6311      548
   0.85940    0.617(10)   10035.    0.3277    0.6384      549
   0.86013    0.609(10)   10158.    0.3276    0.6203      550
   0.86086    0.594(10)   10384.    0.3276    0.5864      551
   0.86159    0.557(10)   11061.    0.3275    0.5473      552
   0.86233    0.514(9)    11953.    0.3274    0.5100      553
   0.86306    0.466(9)    13174.    0.3273    0.4777      554
   0.86379    0.429(8)    14288.    0.3272    0.4506      555
   0.86452    0.421(8)    14511.    0.3271    0.4283      556
   0.86526    0.394(8)    15484.    0.3270    0.4100      557
   0.86599    0.368(8)    16534.    0.3269    0.3949      558
   0.86672    0.372(8)    16319.    0.3268    0.3826      559
   0.86745    0.366(8)    16543.    0.3268    0.3724      560
   0.86819    0.356(8)    17018.    0.3267    0.3641      561
   0.86892    0.340(8)    17755.    0.3266    0.3573      562
   0.86965    0.338(7)    17810.    0.3265    0.3523      563
   0.87038    0.341(8)    17648.    0.3264    0.3482      564
   0.87111    0.341(8)    17617.    0.3263    0.3452      565
   0.87185    0.338(8)    17725.    0.3262    0.3433      566
   0.87258    0.346(8)    17249.    0.3261    0.3430      567
   0.87331    0.347(8)    17200.    0.3260    0.3445      568
   0.87404    0.331(7)    17953.    0.3260    0.3489      569
   0.87478    0.350(8)    16981.    0.3259    0.3577      570
   0.87551    0.374(8)    15819.    0.3258    0.3731      571
   0.87624    0.385(8)    15343.    0.3257    0.3983      572
   0.87697    0.420(8)    14055.    0.3256    0.4366      573
   0.87771    0.478(9)    12299.    0.3255    0.4905      574
   0.87844    0.548(10)   10705.    0.3254    0.5590      575
   0.87917    0.612(10)   9569.     0.3253    0.6363      576
   0.87990    0.672(11)   8693.     0.3253    0.7110      577
   0.88064    0.720(11)   8088.     0.3252    0.7693      578
   0.88137    0.735(11)   7905.     0.3251    0.8000      579
   0.88210    0.769(12)   7539.     0.3250    0.7990      580
   0.88283    0.735(11)   7872.     0.3249    0.7702      581
   0.88357    0.705(11)   8194.     0.3248    0.7232      582
   0.88430    0.682(11)   8450.     0.3247    0.6685      583
   0.88503    0.623(10)   9235.     0.3246    0.6144      584
   0.88576    0.558(10)   10286.    0.3246    0.5650      585
   0.88650    0.503(9)    11404.    0.3245    0.5229      586
   0.88723    0.470(9)    12166.    0.3244    0.4876      587
   0.88796    0.449(9)    12719.    0.3243    0.4585      588
   0.88869    0.415(9)    13741.    0.3242    0.4344      589
   0.88943    0.405(8)    14020.    0.3241    0.4147      590
   0.89016    0.382(8)    14869.    0.3241    0.3984      591
   0.89089    0.376(8)    15047.    0.3240    0.3850      592
   0.89162    0.364(8)    15499.    0.3239    0.3740      593
   0.89236    0.356(8)    15855.    0.3238    0.3650      594
   0.89309    0.344(8)    16374.    0.3237    0.3576      595
   0.89382    0.331(8)    16933.    0.3236    0.3514      596
   0.89455    0.326(8)    17173.    0.3235    0.3464      597
   0.89529    0.325(8)    17211.    0.3235    0.3422      598
   0.89602    0.315(8)    17682.    0.3234    0.3388      599
   0.89675    0.330(8)    16885.    0.3233    0.3359      600
   0.89748    0.316(8)    17587.    0.3232    0.3336      601
   0.89821    0.324(8)    17120.    0.3231    0.3317      602
   0.89895    0.319(8)    17325.    0.3230    0.3301      603
   0.89968    0.311(8)    17742.    0.3230    0.3287      604
   0.90041    0.308(7)    17893.    0.3229    0.3276      605
   0.90114    0.305(7)    17984.    0.3228    0.3267      606
   0.90188    0.318(8)    17208.    0.3227    0.3259      607
   0.90261    0.316(8)    17331.    0.3226    0.3252      608
   0.90334    0.319(8)    17106.    0.3225    0.3247      609
   0.90407    0.315(8)    17298.    0.3225    0.3242      610
   0.90481    0.313(8)    17333.    0.3224    0.3238      611
   0.90554    0.314(8)    17237.    0.3223    0.3235      612
   0.90627    0.318(8)    17030.    0.3222    0.3236      613
   0.90700    0.306(8)    17622.    0.3221    0.3237      614
   0.90774    0.311(8)    17313.    0.3220    0.3239      615
   0.90847    0.314(8)    17104.    0.3220    0.3240      616
   0.90920    0.319(8)    16809.    0.3219    0.3252      617
   0.90993    0.313(8)    17104.    0.3218    0.3273      618
   0.91067    0.318(8)    16787.    0.3217    0.3308      619
   0.91140    0.316(8)    16832.    0.3216    0.3365      620
   0.91213    0.317(8)    16747.    0.3216    0.3460      621
   0.91286    0.331(8)    16008.    0.3215    0.3614      622
   0.91360    0.352(8)    15020.    0.3214    0.3860      623
   0.91433    0.399(9)    13227.    0.3213    0.4232      624
   0.91506    0.458(9)    11476.    0.3212    0.4756      625
   0.91579    0.534(10)   9831.     0.3212    0.5417      626
   0.91653    0.583(11)   8973.     0.3211    0.6131      627
   0.91726    0.626(11)   8348.     0.3210    0.6756      628
   0.91799    0.686(11)   7590.     0.3209    0.7141      629
   0.91872    0.699(12)   7435.     0.3208    0.7209      630
   0.91946    0.689(12)   7528.     0.3208    0.6984      631
   0.92019    0.643(11)   8049.     0.3207    0.6572      632
   0.92092    0.625(11)   8258.     0.3206    0.6089      633
   0.92165    0.550(10)   9373.     0.3205    0.5620      634
   0.92239    0.510(10)   10085.    0.3204    0.5206      635
   0.92312    0.459(9)    11187.    0.3204    0.4855      636
   0.92385    0.433(9)    11829.    0.3203    0.4564      637
   0.92458    0.409(9)    12491.    0.3202    0.4323      638
   0.92531    0.398(9)    12808.    0.3201    0.4125      639
   0.92605    0.372(9)    13694.    0.3200    0.3961      640
   0.92678    0.354(8)    14361.    0.3200    0.3826      641
   0.92751    0.348(8)    14580.    0.3199    0.3715      642
   0.92824    0.329(8)    15360.    0.3198    0.3623      643
   0.92898    0.332(8)    15172.    0.3197    0.3547      644
   0.92971    0.326(8)    15463.    0.3196    0.3485      645
   0.93044    0.326(8)    15402.    0.3196    0.3433      646
   0.93117    0.332(8)    15083.    0.3195    0.3390      647
   0.93191    0.323(8)    15499.    0.3194    0.3355      648
   0.93264    0.316(8)    15801.    0.3193    0.3326      649
   0.93337    0.310(8)    16045.    0.3193    0.3302      650
   0.93410    0.307(8)    16150.    0.3192    0.3282      651
   0.93484    0.328(8)    15107.    0.3191    0.3265      652
   0.93557    0.309(8)    15972.    0.3190    0.3251      653
   0.93630    0.306(8)    16142.    0.3189    0.3240      654
   0.93703    0.313(8)    15714.    0.3189    0.3230      655
   0.93777    0.307(8)    16016.    0.3188    0.3222      656
   0.93850    0.311(8)    15744.    0.3187    0.3215      657
   0.93923    0.306(8)    15955.    0.3186    0.3209      658
   0.93996    0.302(8)    16141.    0.3186    0.3205      659
   0.94070    0.314(8)    15499.    0.3185    0.3201      660
   0.94143    0.315(8)    15418.    0.3184    0.3197      661
   0.94216    0.325(8)    14880.    0.3183    0.3194      662
   0.94289    0.320(8)    15080.    0.3183    0.3191      663
   0.94363    0.317(8)    15197.    0.3182    0.3189      664
   0.94436    0.308(8)    15639.    0.3181    0.3187      665
   0.94509    0.298(8)    16123.    0.3180    0.3180      666
   0.94582    0.289(8)    16559.    0.3179    0.3179      667
   0.94656    0.310(8)    15403.    0.3179    0.3179      668
   0.94729    0.298(8)    15991.    0.3178    0.3178      669
   0.94802    0.306(8)    15556.    0.3177    0.3177      670
   0.94875    0.298(8)    15934.    0.3176    0.3182      671
   0.94949    0.298(8)    15906.    0.3176    0.3184      672
   0.95022    0.297(8)    15912.    0.3175    0.3188      673
   0.95095    0.316(8)    14892.    0.3174    0.3195      674
   0.95168    0.313(8)    15005.    0.3173    0.3207      675
   0.95241    0.310(8)    15110.    0.3173    0.3227      676
   0.95315    0.299(8)    15653.    0.3172    0.3260      677
   0.95388    0.312(8)    14950.    0.3171    0.3312      678
   0.95461    0.318(8)    14649.    0.3170    0.3396      679
   0.95534    0.342(9)    13573.    0.3170    0.3528      680
   0.95608    0.353(9)    13130.    0.3169    0.3726      681
   0.95681    0.388(9)    11917.    0.3168    0.4005      682
   0.95754    0.421(10)   10952.    0.3167    0.4363      683
   0.95827    0.460(10)   10009.    0.3167    0.4767      684
   0.95901    0.486(10)   9435.     0.3166    0.5148      685
   0.95974    0.524(11)   8741.     0.3165    0.5425      686
   0.96047    0.541(11)   8436.     0.3165    0.5538      687
   0.96120    0.532(11)   8556.     0.3164    0.5478      688
   0.96194    0.491(10)   9253.     0.3163    0.5283      689
   0.96267    0.499(10)   9092.     0.3162    0.5018      690
   0.96340    0.456(10)   9912.     0.3162    0.4738      691
   0.96413    0.448(10)   10071.    0.3161    0.4479      692
   0.96487    0.415(10)   10844.    0.3160    0.4253      693
   0.96560    0.398(9)    11294.    0.3159    0.4063      694
   0.96633    0.381(9)    11761.    0.3159    0.3905      695
   0.96706    0.367(9)    12198.    0.3158    0.3774      696
   0.96780    0.349(9)    12805.    0.3157    0.3666      697
   0.96853    0.352(9)    12663.    0.3157    0.3577      698
   0.96926    0.327(9)    13594.    0.3156    0.3503      699
   0.96999    0.334(9)    13265.    0.3155    0.3442      700
   0.97073    0.331(9)    13347.    0.3154    0.3391      701
   0.97146    0.310(8)    14257.    0.3154    0.3349      702
   0.97219    0.321(9)    13699.    0.3153    0.3314      703
   0.97292    0.325(9)    13501.    0.3152    0.3285      704
   0.97366    0.326(9)    13429.    0.3151    0.3262      705
   0.97439    0.324(9)    13498.    0.3151    0.3242      706
   0.97512    0.329(9)    13248.    0.3150    0.3225      707
   0.97585    0.303(8)    14344.    0.3149    0.3211      708
   0.97659    0.303(8)    14342.    0.3149    0.3200      709
   0.97732    0.293(8)    14769.    0.3148    0.3190      710
   0.97805    0.294(8)    14700.    0.3147    0.3182      711
   0.97878    0.313(9)    13764.    0.3147    0.3175      712
   0.97951    0.293(8)    14678.    0.3146    0.3170      713
   0.98025    0.297(8)    14437.    0.3145    0.3165      714
   0.98098    0.288(8)    14846.    0.3144    0.3161      715
   0.98171    0.297(8)    14369.    0.3144    0.3157      716
   0.98244    0.302(8)    14101.    0.3143    0.3154      717
   0.98318    0.316(9)    13449.    0.3142    0.3151      718
   0.98391    0.308(9)    13755.    0.3142    0.3149      719
   0.98464    0.301(8)    14044.    0.3141    0.3147      720
   0.98537    0.305(8)    13859.    0.3140    0.3145      721
   0.98611    0.310(9)    13571.    0.3140    0.3144      722
   0.98684    0.310(9)    13570.    0.3139    0.3139      723
   0.98757    0.301(8)    13901.    0.3138    0.3138      724
   0.98830    0.304(9)    13738.    0.3137    0.3137      725
   0.98904    0.295(8)    14140.    0.3137    0.3137      726
   0.98977    0.309(9)    13449.    0.3136    0.3136      727
   0.99050    0.302(9)    13727.    0.3135    0.3135      728
   0.99123    0.309(9)    13385.    0.3135    0.3135      729
   0.99197    0.320(9)    12918.    0.3134    0.3134      730
   0.99270    0.304(9)    13544.    0.3133    0.3133      731
   0.99343    0.302(9)    13621.    0.3133    0.3133      732
   0.99416    0.307(9)    13352.    0.3132    0.3132      733
   0.99490    0.318(9)    12880.    0.3131    0.3131      734
   0.99563    0.303(9)    13482.    0.3131    0.3131      735
   0.99636    0.309(9)    13163.    0.3130    0.3130      736
   0.99709    0.313(9)    12987.    0.3129    0.3129      737
   0.99783    0.315(9)    12865.    0.3128    0.3128      738
   0.99856    0.313(9)    12935.    0.3128    0.3128      739
   0.99929    0.336(9)    12000.    0.3127    0.3127      740
   1.00002    0.326(9)    12334.    0.3126    0.3126      741
   1.00076    0.313(9)    12812.    0.3126    0.3126      742
   1.00149    0.318(9)    12611.    0.3125    0.3125      743
   1.00222    0.335(9)    11941.    0.3124    0.3124      744
   1.00295    0.302(9)    13208.    0.3124    0.3124      745
   1.00369    0.318(9)    12501.    0.3123    0.3123      746
   1.00442    0.320(9)    12412.    0.3122    0.3122      747
   1.00515    0.311(9)    12724.    0.3122    0.3122      748
   1.00588    0.309(9)    12777.    0.3121    0.3167      749
   1.00661    0.300(9)    13114.    0.3120    0.3193      750
   1.00735    0.325(9)    12082.    0.3120    0.3234      751
   1.00808    0.320(9)    12235.    0.3119    0.3297      752
   1.00881    0.332(9)    11782.    0.3118    0.3397      753
   1.00954    0.326(9)    11956.    0.3118    0.3553      754
   1.01028    0.339(9)    11484.    0.3117    0.3792      755
   1.01101    0.385(10)   10084.    0.3116    0.4154      756
   1.01174    0.444(11)   8711.     0.3116    0.4685      757
   1.01247    0.496(11)   7779.     0.3115    0.5435      758
   1.01321    0.621(13)   6201.     0.3114    0.6439      759
   1.01394    0.753(14)   5096.     0.3114    0.7697      760
   1.01467    0.899(15)   4258.     0.3113    0.9146      761
   1.01540    1.063(17)   3588.     0.3112    1.0656      762
   1.01614    1.226(18)   3101.     0.3112    1.2040      763
   1.01687    1.288(18)   2943.     0.3111    1.3098      764
   1.01760    1.379(19)   2742.     0.3111    1.3675      765
   1.01833    1.372(19)   2748.     0.3110    1.3710      766
   1.01907    1.330(19)   2830.     0.3109    1.3245      767
   1.01980    1.255(18)   2993.     0.3109    1.2404      768
   1.02053    1.164(18)   3222.     0.3108    1.1349      769
   1.02126    1.064(17)   3516.     0.3107    1.0227      770
   1.02200    0.938(16)   3980.     0.3107    0.9147      771
   1.02273    0.822(15)   4537.     0.3106    0.8172      772
   1.02346    0.720(14)   5166.     0.3105    0.7326      773
   1.02419    0.643(13)   5772.     0.3105    0.6608      774
   1.02493    0.603(13)   6145.     0.3104    0.6008      775
   1.02566    0.541(12)   6831.     0.3103    0.5509      776
   1.02639    0.521(12)   7085.     0.3103    0.5095      777
   1.02712    0.476(11)   7727.     0.3102    0.4751      778
   1.02786    0.428(11)   8575.     0.3101    0.4467      779
   1.02859    0.417(11)   8780.     0.3101    0.4232      780
   1.02932    0.408(11)   8966.     0.3100    0.4036      781
   1.03005    0.392(10)   9297.     0.3100    0.3875      782
   1.03079    0.384(10)   9471.     0.3099    0.3741      783
   1.03152    0.381(10)   9528.     0.3098    0.3630      784
   1.03225    0.364(10)   9957.     0.3098    0.3538      785
   1.03298    0.360(10)   10039.    0.3097    0.3461      786
   1.03371    0.342(10)   10525.    0.3096    0.3414      787
   1.03445    0.359(10)   10020.    0.3096    0.3370      788
   1.03518    0.331(10)   10828.    0.3095    0.3339      789
   1.03591    0.358(10)   10001.    0.3095    0.3323      790
   1.03664    0.354(10)   10095.    0.3094    0.3325      791
   1.03738    0.347(10)   10266.    0.3093    0.3349      792
   1.03811    0.348(10)   10208.    0.3093    0.3404      793
   1.03884    0.367(10)   9666.     0.3092    0.3503      794
   1.03957    0.367(10)   9627.     0.3091    0.3665      795
   1.04031    0.410(11)   8605.     0.3091    0.3916      796
   1.04104    0.462(11)   7605.     0.3090    0.4282      797
   1.04177    0.510(12)   6879.     0.3090    0.4779      798
   1.04250    0.569(13)   6147.     0.3089    0.5395      799
   1.04324    0.625(13)   5584.     0.3088    0.6075      800
   1.04397    0.662(14)   5251.     0.3088    0.6716      801
   1.04470    0.749(15)   4634.     0.3087    0.7181      802
   1.04543    0.774(15)   4472.     0.3086    0.7415      803
   1.04617    0.772(15)   4472.     0.3086    0.7369      804
   1.04690    0.744(15)   4631.     0.3085    0.7106      805
   1.04763    0.703(14)   4888.     0.3085    0.6685      806
   1.04836    0.679(14)   5048.     0.3084    0.6213      807
   1.04910    0.645(14)   5304.     0.3083    0.5761      808
   1.04983    0.594(13)   5744.     0.3083    0.5370      809
   1.05056    0.552(13)   6169.     0.3082    0.5058      810
   1.05129    0.538(13)   6310.     0.3082    0.4835      811
   1.05203    0.502(12)   6752.     0.3081    0.4711      812
   1.05276    0.481(12)   7038.     0.3080    0.4702      813
   1.05349    0.475(12)   7100.     0.3080    0.4838      814
   1.05422    0.506(12)   6647.     0.3079    0.5169      815
   1.05496    0.512(12)   6557.     0.3079    0.5770      816
   1.05569    0.624(14)   5364.     0.3078    0.6748      817
   1.05642    0.767(15)   4348.     0.3077    0.8235      818
   1.05715    1.001(17)   3322.     0.3077    1.0382      819
   1.05788    1.314(20)   2521.     0.3076    1.3318      820
   1.05862    1.710(23)   1929.     0.3075    1.7094      821
   1.05935    2.142(26)   1533.     0.3075    2.1614      822
   1.06008    2.573(28)   1270.     0.3074    2.6586      823
   1.06081    3.066(31)   1061.     0.3074    3.1519      824
   1.06155    3.452(33)   938.      0.3073    3.5807      825
   1.06228    3.701(34)   872.      0.3073    3.8862      826
   1.06301    3.897(35)   825.      0.3072    4.0283      827
   1.06374    3.898(35)   823.      0.3071    3.9961      828
   1.06448    3.721(34)   861.      0.3071    3.8091      829
   1.06521    3.478(33)   920.      0.3070    3.5088      830
   1.06594    3.249(32)   983.      0.3070    3.1448      831
   1.06667    2.786(30)   1146.     0.3069    2.7627      832
   1.06741    2.428(28)   1315.     0.3068    2.3957      833
   1.06814    2.086(26)   1529.     0.3068    2.0635      834
   1.06887    1.761(24)   1809.     0.3067    1.7739      835
   1.06960    1.541(22)   2065.     0.3067    1.5274      836
   1.07034    1.331(20)   2388.     0.3066    1.3205      837
   1.07107    1.142(19)   2779.     0.3065    1.1478      838
   1.07180    0.999(18)   3169.     0.3065    1.0043      839
   1.07253    0.889(17)   3555.     0.3064    0.8846      840
   1.07327    0.777(16)   4059.     0.3064    0.7859      841
   1.07400    0.704(15)   4471.     0.3063    0.7040      842
   1.07473    0.630(14)   4989.     0.3063    0.6361      843
   1.07546    0.585(14)   5361.     0.3062    0.5797      844
   1.07620    0.542(13)   5769.     0.3061    0.5330      845
   1.07693    0.511(13)   6111.     0.3061    0.4942      846
   1.07766    0.466(12)   6681.     0.3060    0.4621      847
   1.07839    0.463(12)   6709.     0.3060    0.4354      848
   1.07913    0.446(12)   6951.     0.3059    0.4132      849
   1.07986    0.431(12)   7177.     0.3058    0.3949      850
   1.08059    0.403(11)   7654.     0.3058    0.3796      851
   1.08132    0.402(11)   7647.     0.3057    0.3670      852
   1.08206    0.401(11)   7647.     0.3057    0.3565      853
   1.08279    0.384(11)   7972.     0.3056    0.3477      854
   1.08352    0.369(11)   8278.     0.3056    0.3405      855
   1.08425    0.380(11)   8017.     0.3055    0.3345      856
   1.08498    0.356(11)   8530.     0.3054    0.3295      857
   1.08572    0.365(11)   8313.     0.3054    0.3253      858
   1.08645    0.370(11)   8169.     0.3053    0.3219      859
   1.08718    0.379(11)   7973.     0.3053    0.3190      860
   1.08791    0.333(11)   9050.     0.3052    0.3166      861
   1.08865    0.344(11)   8745.     0.3052    0.3146      862
   1.08938    0.350(11)   8561.     0.3051    0.3129      863
   1.09011    0.341(11)   8770.     0.3051    0.3051      864
   1.09084    0.345(11)   8651.     0.3050    0.3050      865
   1.09158    0.352(11)   8445.     0.3049    0.3049      866
   1.09231    0.347(11)   8551.     0.3049    0.3049      867
   1.09304    0.356(11)   8315.     0.3048    0.3053      868
   1.09377    0.340(11)   8696.     0.3048    0.3054      869
   1.09451    0.337(11)   8749.     0.3047    0.3057      870
   1.09524    0.342(11)   8594.     0.3047    0.3062      871
   1.09597    0.336(11)   8717.     0.3046    0.3069      872
   1.09670    0.326(11)   8984.     0.3046    0.3080      873
   1.09744    0.333(11)   8766.     0.3045    0.3097      874
   1.09817    0.339(11)   8590.     0.3044    0.3123      875
   1.09890    0.323(11)   8986.     0.3044    0.3162      876
   1.09963    0.337(11)   8585.     0.3043    0.3222      877
   1.10037    0.329(11)   8796.     0.3043    0.3313      878
   1.10110    0.325(11)   8884.     0.3042    0.3449      879
   1.10183    0.358(11)   8033.     0.3042    0.3655      880
   1.10256    0.374(11)   7667.     0.3041    0.3960      881
   1.10330    0.433(12)   6607.     0.3041    0.4405      882
   1.10403    0.507(13)   5629.     0.3040    0.5033      883
   1.10476    0.594(14)   4789.     0.3039    0.5874      884
   1.10549    0.686(16)   4136.     0.3039    0.6923      885
   1.10623    0.805(17)   3511.     0.3038    0.8112      886
   1.10696    0.892(18)   3159.     0.3038    0.9302      887
   1.10769    1.045(19)   2689.     0.3037    1.0305      888
   1.10842    1.070(20)   2619.     0.3037    1.0945      889
   1.10916    1.116(20)   2505.     0.3036    1.1120      890
   1.10989    1.069(20)   2609.     0.3036    1.0839      891
   1.11062    1.061(20)   2623.     0.3035    1.0210      892
   1.11135    0.964(19)   2880.     0.3035    0.9382      893
   1.11208    0.882(18)   3145.     0.3034    0.8497      894
   1.11282    0.797(17)   3471.     0.3034    0.7653      895
   1.11355    0.718(16)   3843.     0.3033    0.6901      896
   1.11428    0.654(15)   4211.     0.3032    0.6255      897
   1.11501    0.577(14)   4767.     0.3032    0.5711      898
   1.11575    0.533(14)   5146.     0.3031    0.5257      899
   1.11648    0.509(14)   5378.     0.3031    0.4880      900
   1.11721    0.460(13)   5936.     0.3030    0.4566      901
   1.11794    0.428(13)   6363.     0.3030    0.4305      902
   1.11868    0.386(12)   7051.     0.3029    0.4088      903
   1.11941    0.396(12)   6840.     0.3029    0.3908      904
   1.12014    0.395(12)   6852.     0.3028    0.3759      905
   1.12087    0.355(11)   7609.     0.3028    0.3634      906
   1.12161    0.345(11)   7800.     0.3027    0.3531      907
   1.12234    0.360(12)   7465.     0.3027    0.3445      908
   1.12307    0.322(11)   8315.     0.3026    0.3374      909
   1.12380    0.316(11)   8461.     0.3026    0.3314      910
   1.12454    0.325(11)   8206.     0.3025    0.3265      911
   1.12527    0.318(11)   8379.     0.3025    0.3224      912
   1.12600    0.321(11)   8260.     0.3024    0.3189      913
   1.12673    0.319(11)   8307.     0.3023    0.3161      914
   1.12747    0.322(11)   8199.     0.3023    0.3137      915
   1.12820    0.320(11)   8236.     0.3022    0.3117      916
   1.12893    0.288(10)   9116.     0.3022    0.3101      917
   1.12966    0.302(11)   8682.     0.3021    0.3087      918
   1.13040    0.310(11)   8427.     0.3021    0.3075      919
   1.13113    0.302(11)   8652.     0.3020    0.3065      920
   1.13186    0.338(11)   7691.     0.3020    0.3057      921
   1.13259    0.320(11)   8115.     0.3019    0.3050      922
   1.13333    0.318(11)   8154.     0.3019    0.3045      923
   1.13406    0.303(11)   8518.     0.3018    0.3040      924
   1.13479    0.318(11)   8104.     0.3018    0.3036      925
   1.13552    0.321(11)   8006.     0.3017    0.3017      926
   1.13626    0.299(11)   8592.     0.3017    0.3017      927
   1.13699    0.320(11)   7996.     0.3016    0.3016      928
   1.13772    0.311(11)   8208.     0.3016    0.3016      929
   1.13845    0.319(11)   7987.     0.3015    0.3015      930
   1.13918    0.303(11)   8371.     0.3015    0.3015      931
   1.13992    0.297(11)   8530.     0.3014    0.3014      932
   1.14065    0.287(11)   8804.     0.3014    0.3014      933
   1.14138    0.309(11)   8155.     0.3013    0.3013      934
   1.14211    0.293(11)   8577.     0.3013    0.3013      935
   1.14285    0.300(11)   8354.     0.3012    0.3012      936
   1.14358    0.319(11)   7855.     0.3012    0.3012      937
   1.14431    0.313(11)   7987.     0.3011    0.3011      938
   1.14504    0.307(11)   8104.     0.3011    0.3011      939
   1.14578    0.297(11)   8382.     0.3010    0.3010      940
   1.14651    0.307(11)   8068.     0.3010    0.3010      941
   1.14724    0.297(11)   8335.     0.3009    0.3009      942
   1.14797    0.312(11)   7896.     0.3009    0.3009      943
   1.14871    0.319(11)   7708.     0.3008    0.3008      944
   1.14944    0.301(11)   8170.     0.3008    0.3008      945
   1.15017    0.300(11)   8163.     0.3007    0.3007      946
   1.15090    0.304(11)   8025.     0.3007    0.3007      947
   1.15164    0.291(11)   8369.     0.3006    0.3006      948
   1.15237    0.313(11)   7770.     0.3006    0.3006      949
   1.15310    0.301(11)   8050.     0.3005    0.3005      950
   1.15383    0.314(11)   7715.     0.3005    0.3005      951
   1.15457    0.300(11)   8038.     0.3004    0.3004      952
   1.15530    0.325(12)   7416.     0.3004    0.3004      953
   1.15603    0.318(12)   7544.     0.3003    0.3003      954
   1.15676    0.306(11)   7825.     0.3003    0.3003      955
   1.15750    0.320(12)   7461.     0.3002    0.3002      956
   1.15823    0.310(11)   7686.     0.3002    0.3002      957
   1.15896    0.317(12)   7497.     0.3001    0.3001      958
   1.15969    0.306(11)   7748.     0.3001    0.3001      959
   1.16043    0.302(11)   7851.     0.3000    0.3000      960
   1.16116    0.305(11)   7737.     0.3000    0.3000      961
   1.16189    0.318(12)   7402.     0.2999    0.2999      962
   1.16262    0.294(11)   7995.     0.2999    0.2999      963
   1.16335    0.297(11)   7888.     0.2998    0.2998      964
   1.16409    0.302(11)   7738.     0.2998    0.2998      965
   1.16482    0.293(11)   7972.     0.2997    0.2997      966
   1.16555    0.299(11)   7796.     0.2997    0.2997      967
   1.16628    0.305(11)   7616.     0.2996    0.2996      968
   1.16702    0.304(11)   7611.     0.2996    0.2996      969
   1.16775    0.299(11)   7739.     0.2995    0.2995      970
   1.16848    0.283(11)   8151.     0.2995    0.2995      971
   1.16921    0.301(11)   7642.     0.2994    0.2995      972
   1.16995    0.300(11)   7638.     0.2994    0.2994      973
   1.17068    0.311(12)   7356.     0.2994    0.2994      974
   1.17141    0.308(12)   7404.     0.2993    0.2993      975
   1.17214    0.333(12)   6834.     0.2993    0.2993      976
   1.17288    0.314(12)   7230.     0.2992    0.2992      977
   1.17361    0.318(12)   7135.     0.2992    0.2992      978
   1.17434    0.306(12)   7398.     0.2991    0.2991      979
   1.17507    0.312(12)   7226.     0.2991    0.2991      980
   1.17581    0.319(12)   7051.     0.2990    0.2990      981
   1.17654    0.304(12)   7388.     0.2990    0.2990      982
   1.17727    0.302(12)   7406.     0.2989    0.2989      983
   1.17800    0.307(12)   7285.     0.2989    0.2989      984
   1.17874    0.300(12)   7423.     0.2988    0.2988      985
   1.17947    0.301(12)   7387.     0.2988    0.2988      986
   1.18020    0.302(12)   7340.     0.2987    0.2987      987
   1.18093    0.288(11)   7695.     0.2987    0.2987      988
   1.18167    0.298(12)   7402.     0.2986    0.2986      989
   1.18240    0.309(12)   7128.     0.2986    0.2986      990
   1.18313    0.292(12)   7525.     0.2986    0.2986      991
   1.18386    0.325(12)   6742.     0.2985    0.2985      992
   1.18460    0.294(12)   7430.     0.2985    0.2985      993
   1.18533    0.291(12)   7487.     0.2984    0.2984      994
   1.18606    0.297(12)   7313.     0.2984    0.2984      995
   1.18679    0.325(12)   6669.     0.2983    0.2983      996
   1.18753    0.310(12)   6994.     0.2983    0.2983      997
   1.18826    0.300(12)   7197.     0.2982    0.2982      998
   1.18899    0.292(12)   7366.     0.2982    0.2982      999
   1.18972    0.305(12)   7051.     0.2981    0.2981     1000
   1.19045    0.296(12)   7238.     0.2981    0.2981     1001
   1.19119    0.296(12)   7226.     0.2980    0.2980     1002
   1.19192    0.297(12)   7180.     0.2980    0.2980     1003
   1.19265    0.298(12)   7134.     0.2980    0.2980     1004
   1.19338    0.291(12)   7307.     0.2979    0.2979     1005
   1.19412    0.295(12)   7190.     0.2979    0.2979     1006
   1.19485    0.296(12)   7144.     0.2978    0.2978     1007
   1.19558    0.288(12)   7333.     0.2978    0.2978     1008
   1.19631    0.306(12)   6878.     0.2977    0.2977     1009
   1.19705    0.300(12)   6986.     0.2977    0.2977     1010
   1.19778    0.309(12)   6770.     0.2976    0.2976     1011
   1.19851    0.283(12)   7388.     0.2976    0.2976     1012
   1.19924    0.287(12)   7254.     0.2975    0.2975     1013
   1.19998    0.309(12)   6714.     0.2975    0.2975     1014
   1.20071    0.287(12)   7233.     0.2975    0.2975     1015
   1.20144    0.299(12)   6919.     0.2974    0.2974     1016
   1.20217    0.299(12)   6897.     0.2974    0.2974     1017
   1.20291    0.311(12)   6627.     0.2973    0.2973     1018
   1.20364    0.301(12)   6820.     0.2973    0.2973     1019
   1.20437    0.309(12)   6626.     0.2972    0.2972     1020
   1.20510    0.311(12)   6573.     0.2972    0.2972     1021
   1.20584    0.305(12)   6689.     0.2971    0.2971     1022
   1.20657    0.324(13)   6274.     0.2971    0.2971     1023
   1.20730    0.308(12)   6583.     0.2971    0.2971     1024
   1.20803    0.307(12)   6594.     0.2970    0.2970     1025
   1.20877    0.284(12)   7099.     0.2970    0.2970     1026
   1.20950    0.308(12)   6541.     0.2969    0.2969     1027
   1.21023    0.298(12)   6738.     0.2969    0.2969     1028
   1.21096    0.298(12)   6717.     0.2968    0.2968     1029
   1.21170    0.309(12)   6479.     0.2968    0.2968     1030
   1.21243    0.298(12)   6698.     0.2967    0.2967     1031
   1.21316    0.304(12)   6555.     0.2967    0.2967     1032
   1.21389    0.312(13)   6355.     0.2967    0.2967     1033
   1.21463    0.307(12)   6450.     0.2966    0.2966     1034
   1.21536    0.316(13)   6244.     0.2966    0.2966     1035
   1.21609    0.306(12)   6452.     0.2965    0.2965     1036
   1.21682    0.318(13)   6185.     0.2965    0.2965     1037
   1.21755    0.332(13)   5910.     0.2964    0.2964     1038
   1.21829    0.320(13)   6116.     0.2964    0.2964     1039
   1.21902    0.330(13)   5917.     0.2964    0.2964     1040
   1.21975    0.296(12)   6572.     0.2963    0.2963     1041
   1.22048    0.304(13)   6386.     0.2963    0.2963     1042
   1.22122    0.314(13)   6178.     0.2962    0.2962     1043
   1.22195    0.325(13)   5953.     0.2962    0.2962     1044
   1.22268    0.325(13)   5934.     0.2961    0.2961     1045
   1.22341    0.304(13)   6340.     0.2961    0.2961     1046
   1.22415    0.311(13)   6183.     0.2960    0.2960     1047
   1.22488    0.293(12)   6537.     0.2960    0.2960     1048
   1.22561    0.329(13)   5812.     0.2960    0.2960     1049
   1.22634    0.303(13)   6284.     0.2959    0.2959     1050
   1.22708    0.312(13)   6086.     0.2959    0.2959     1051
   1.22781    0.340(13)   5578.     0.2958    0.2958     1052
   1.22854    0.349(14)   5425.     0.2958    0.2958     1053
   1.22927    0.352(14)   5359.     0.2957    0.2957     1054
   1.23001    0.349(14)   5390.     0.2957    0.2964     1055
   1.23074    0.340(13)   5524.     0.2957    0.3055     1056
   1.23147    0.318(13)   5894.     0.2956    0.3098     1057
   1.23220    0.342(14)   5463.     0.2956    0.3161     1058
   1.23294    0.354(14)   5272.     0.2955    0.3251     1059
   1.23367    0.362(14)   5146.     0.2955    0.3382     1060
   1.23440    0.394(15)   4709.     0.2955    0.3570     1061
   1.23513    0.405(15)   4568.     0.2954    0.3841     1062
   1.23587    0.403(15)   4582.     0.2954    0.4229     1063
   1.23660    0.419(15)   4395.     0.2953    0.4782     1064
   1.23733    0.513(17)   3582.     0.2953    0.5562     1065
   1.23806    0.599(18)   3061.     0.2952    0.6649     1066
   1.23880    0.759(20)   2406.     0.2952    0.8136     1067
   1.23953    0.964(23)   1890.     0.2952    1.0120     1068
   1.24026    1.274(26)   1424.     0.2951    1.2688     1069
   1.24099    1.633(30)   1107.     0.2951    1.5887     1070
   1.24172    1.968(33)   915.      0.2950    1.9694     1071
   1.24246    2.48(4)     722.      0.295     2.398      1072
   1.24319    2.90(4)     615.      0.295     2.848      1073
   1.24392    3.35(4)     530.      0.295     3.284      1074
   1.24465    3.76(5)     470.      0.295     3.663      1075
   1.24539    4.02(5)     439.      0.295     3.944      1076
   1.24612    4.12(5)     427.      0.295     4.097      1077
   1.24685    4.13(5)     425.      0.295     4.109      1078
   1.24758    4.16(5)     420.      0.295     3.987      1079
   1.24832    3.76(5)     465.      0.295     3.756      1080
   1.24905    3.55(5)     492.      0.295     3.449      1081
   1.24978    3.16(4)     552.      0.295     3.101      1082
   1.25051    2.82(4)     620.      0.295     2.743      1083
   1.25125    2.49(4)     699.      0.295     2.399      1084
   1.25198    2.136(35)   815.      0.2945    2.0828     1085
   1.25271    1.826(32)   952.      0.2944    1.8023     1086
   1.25344    1.574(30)   1104.     0.2944    1.5591     1087
   1.25418    1.346(28)   1289.     0.2943    1.3517     1088
   1.25491    1.162(26)   1490.     0.2943    1.1766     1089
   1.25564    1.010(24)   1711.     0.2943    1.0297     1090
   1.25637    0.901(23)   1914.     0.2942    0.9069     1091
   1.25711    0.780(21)   2207.     0.2942    0.8045     1092
   1.25784    0.710(20)   2422.     0.2941    0.7191     1093
   1.25857    0.616(19)   2784.     0.2941    0.6480     1094
   1.25930    0.606(19)   2822.     0.2941    0.5888     1095
   1.26004    0.535(18)   3190.     0.2940    0.5395     1096
   1.26077    0.497(17)   3430.     0.2940    0.4984     1097
   1.26150    0.488(17)   3480.     0.2939    0.4641     1098
   1.26223    0.446(16)   3802.     0.2939    0.4356     1099
   1.26297    0.447(16)   3789.     0.2939    0.4119     1100
   1.26370    0.433(16)   3900.     0.2938    0.3921     1101
   1.26443    0.401(15)   4204.     0.2938    0.3756     1102
   1.26516    0.378(15)   4448.     0.2937    0.3619     1103
   1.26590    0.402(15)   4171.     0.2937    0.3505     1104
   1.26663    0.374(15)   4470.     0.2937    0.3409     1105
   1.26736    0.356(15)   4688.     0.2936    0.3330     1106
   1.26809    0.363(15)   4582.     0.2936    0.3264     1107
   1.26882    0.370(15)   4493.     0.2935    0.3208     1108
   1.26956    0.353(15)   4694.     0.2935    0.3162     1109
   1.27029    0.338(14)   4889.     0.2935    0.3124     1110
   1.27102    0.352(15)   4690.     0.2934    0.3092     1111
   1.27175    0.355(15)   4636.     0.2934    0.3065     1112
   1.27249    0.331(14)   4953.     0.2933    0.3043     1113
   1.27322    0.360(15)   4554.     0.2933    0.2933     1114
   1.27395    0.327(14)   4999.     0.2933    0.2933     1115
   1.27468    0.304(14)   5356.     0.2932    0.2932     1116
   1.27542    0.311(14)   5236.     0.2932    0.2932     1117
   1.27615    0.307(14)   5285.     0.2931    0.2931     1118
   1.27688    0.315(14)   5147.     0.2931    0.2931     1119
   1.27761    0.331(14)   4883.     0.2931    0.2931     1120
   1.27835    0.323(14)   4991.     0.2930    0.2930     1121
   1.27908    0.312(14)   5145.     0.2930    0.2930     1122
   1.27981    0.315(14)   5091.     0.2930    0.2930     1123
   1.28054    0.291(13)   5503.     0.2929    0.2929     1124
   1.28128    0.338(15)   4726.     0.2929    0.2929     1125
   1.28201    0.326(14)   4885.     0.2928    0.2928     1126
   1.28274    0.327(14)   4852.     0.2928    0.2928     1127
   1.28347    0.314(14)   5053.     0.2928    0.2928     1128
   1.28421    0.319(14)   4960.     0.2927    0.2927     1129
   1.28494    0.315(14)   5006.     0.2927    0.2927     1130
   1.28567    0.315(14)   5003.     0.2926    0.2926     1131
   1.28640    0.315(14)   4980.     0.2926    0.2926     1132
   1.28714    0.307(14)   5101.     0.2926    0.2926     1133
   1.28787    0.323(14)   4845.     0.2925    0.2925     1134
   1.28860    0.311(14)   5011.     0.2925    0.2925     1135
   1.28933    0.320(14)   4858.     0.2925    0.2925     1136
   1.29007    0.304(14)   5102.     0.2924    0.2924     1137
   1.29080    0.319(14)   4862.     0.2924    0.2924     1138
   1.29153    0.298(14)   5186.     0.2923    0.2923     1139
   1.29226    0.318(14)   4846.     0.2923    0.2923     1140
   1.29300    0.324(15)   4746.     0.2923    0.2923     1141
   1.29373    0.294(14)   5216.     0.2922    0.2922     1142
   1.29446    0.331(15)   4619.     0.2922    0.2922     1143
   1.29519    0.301(14)   5078.     0.2922    0.2922     1144
   1.29592    0.313(14)   4874.     0.2921    0.2921     1145
   1.29666    0.302(14)   5031.     0.2921    0.2921     1146
   1.29739    0.290(14)   5235.     0.2920    0.2920     1147
   1.29812    0.307(14)   4930.     0.2920    0.2920     1148
   1.29885    0.319(15)   4734.     0.2920    0.2920     1149
   1.29959    0.308(14)   4895.     0.2919    0.2919     1150
   1.30032    0.297(14)   5058.     0.2919    0.2919     1151
   1.30105    0.314(14)   4778.     0.2919    0.2919     1152
   1.30178    0.300(14)   4989.     0.2918    0.2918     1153
   1.30252    0.323(15)   4626.     0.2918    0.2918     1154
   1.30325    0.314(15)   4742.     0.2917    0.2917     1155
   1.30398    0.298(14)   4987.     0.2917    0.2917     1156
   1.30471    0.324(15)   4581.     0.2917    0.2917     1157
   1.30545    0.295(14)   5020.     0.2916    0.2916     1158
   1.30618    0.297(14)   4974.     0.2916    0.2916     1159
   1.30691    0.299(14)   4917.     0.2916    0.2916     1160
   1.30764    0.312(15)   4702.     0.2915    0.2915     1161
   1.30838    0.289(14)   5068.     0.2915    0.2915     1162
   1.30911    0.318(15)   4599.     0.2915    0.2915     1163
   1.30984    0.334(15)   4362.     0.2914    0.2914     1164
   1.31057    0.298(14)   4883.     0.2914    0.2914     1165
   1.31131    0.303(14)   4783.     0.2913    0.2913     1166
   1.31204    0.286(14)   5059.     0.2913    0.2913     1167
   1.31277    0.301(14)   4793.     0.2913    0.2913     1168
   1.31350    0.290(14)   4965.     0.2912    0.2912     1169
   1.31424    0.291(14)   4942.     0.2912    0.2912     1170
   1.31497    0.303(15)   4738.     0.2912    0.2912     1171
   1.31570    0.280(14)   5117.     0.2911    0.2911     1172
   1.31643    0.274(14)   5210.     0.2911    0.2911     1173
   1.31717    0.314(15)   4537.     0.2911    0.2911     1174
   1.31790    0.284(14)   5009.     0.2910    0.2910     1175
   1.31863    0.272(14)   5219.     0.2910    0.2910     1176
   1.31936    0.340(15)   4168.     0.2909    0.2909     1177
   1.32009    0.311(15)   4536.     0.2909    0.2909     1178
   1.32083    0.306(15)   4609.     0.2909    0.2909     1179
   1.32156    0.290(14)   4847.     0.2908    0.2908     1180
   1.32229    0.306(15)   4588.     0.2908    0.2908     1181
   1.32302    0.321(15)   4354.     0.2908    0.2908     1182
   1.32376    0.299(15)   4666.     0.2907    0.2907     1183
   1.32449    0.316(15)   4402.     0.2907    0.2907     1184
   1.32522    0.298(15)   4657.     0.2907    0.2907     1185
   1.32595    0.283(14)   4895.     0.2906    0.2906     1186
   1.32669    0.280(14)   4948.     0.2906    0.2906     1187
   1.32742    0.290(14)   4766.     0.2906    0.2906     1188
   1.32815    0.318(15)   4332.     0.2905    0.2905     1189
   1.32888    0.299(15)   4596.     0.2905    0.2905     1190
   1.32962    0.290(15)   4724.     0.2905    0.2905     1191
   1.33035    0.281(14)   4874.     0.2904    0.2904     1192
   1.33108    0.297(15)   4600.     0.2904    0.2904     1193
   1.33181    0.291(15)   4671.     0.2903    0.2903     1194
   1.33255    0.275(14)   4936.     0.2903    0.2903     1195
   1.33328    0.320(15)   4234.     0.2903    0.2903     1196
   1.33401    0.290(15)   4655.     0.2902    0.2902     1197
   1.33474    0.283(14)   4767.     0.2902    0.2902     1198
   1.33548    0.290(15)   4648.     0.2902    0.2902     1199
   1.33621    0.305(15)   4401.     0.2901    0.2901     1200
   1.33694    0.283(15)   4727.     0.2901    0.2901     1201
   1.33767    0.273(14)   4899.     0.2901    0.2901     1202
   1.33841    0.287(15)   4647.     0.2900    0.2900     1203
   1.33914    0.318(15)   4188.     0.2900    0.2900     1204
   1.33987    0.293(15)   4534.     0.2900    0.2900     1205
   1.34060    0.317(15)   4180.     0.2899    0.2899     1206
   1.34134    0.308(15)   4294.     0.2899    0.2899     1207
   1.34207    0.280(15)   4702.     0.2899    0.2910     1208
   1.34280    0.299(15)   4395.     0.2898    0.2914     1209
   1.34353    0.303(15)   4331.     0.2898    0.2920     1210
   1.34427    0.292(15)   4481.     0.2898    0.2928     1211
   1.34500    0.286(15)   4568.     0.2897    0.2940     1212
   1.34573    0.293(15)   4452.     0.2897    0.2957     1213
   1.34646    0.286(15)   4551.     0.2897    0.2981     1214
   1.34719    0.320(16)   4051.     0.2896    0.3014     1215
   1.34793    0.306(15)   4236.     0.2896    0.3060     1216
   1.34866    0.326(16)   3966.     0.2896    0.3126     1217
   1.34939    0.331(16)   3893.     0.2895    0.3217     1218
   1.35012    0.347(16)   3710.     0.2895    0.3343     1219
   1.35086    0.361(17)   3557.     0.2895    0.3515     1220
   1.35159    0.411(18)   3111.     0.2894    0.3746     1221
   1.35232    0.415(18)   3079.     0.2894    0.4047     1222
   1.35305    0.499(20)   2554.     0.2894    0.4425     1223
   1.35379    0.474(19)   2681.     0.2893    0.4875     1224
   1.35452    0.540(21)   2349.     0.2893    0.5378     1225
   1.35525    0.626(22)   2020.     0.2893    0.5896     1226
   1.35598    0.608(22)   2076.     0.2892    0.6377     1227
   1.35672    0.672(23)   1874.     0.2892    0.6761     1228
   1.35745    0.694(24)   1809.     0.2892    0.7001     1229
   1.35818    0.708(24)   1769.     0.2891    0.7068     1230
   1.35891    0.663(23)   1886.     0.2891    0.6962     1231
   1.35965    0.663(23)   1880.     0.2891    0.6711     1232
   1.36038    0.652(23)   1908.     0.2890    0.6360     1233
   1.36111    0.594(22)   2091.     0.2890    0.5956     1234
   1.36184    0.609(22)   2034.     0.2890    0.5544     1235
   1.36258    0.543(21)   2275.     0.2889    0.5152     1236
   1.36331    0.507(20)   2435.     0.2889    0.4799     1237
   1.36404    0.460(19)   2677.     0.2889    0.4492     1238
   1.36477    0.454(19)   2708.     0.2888    0.4229     1239
   1.36551    0.424(19)   2888.     0.2888    0.4007     1240
   1.36624    0.364(17)   3359.     0.2888    0.3821     1241
   1.36697    0.354(17)   3452.     0.2887    0.3666     1242
   1.36770    0.351(17)   3469.     0.2887    0.3536     1243
   1.36844    0.323(16)   3761.     0.2887    0.3428     1244
   1.36917    0.338(17)   3589.     0.2886    0.3338     1245
   1.36990    0.325(16)   3718.     0.2886    0.3263     1246
   1.37063    0.339(17)   3557.     0.2886    0.3200     1247
   1.37136    0.311(16)   3872.     0.2885    0.3147     1248
   1.37210    0.336(17)   3578.     0.2885    0.3103     1249
   1.37283    0.299(16)   4008.     0.2885    0.3067     1250
   1.37356    0.263(15)   4548.     0.2884    0.3036     1251
   1.37429    0.286(15)   4170.     0.2884    0.3011     1252
   1.37503    0.328(17)   3631.     0.2884    0.2989     1253
   1.37576    0.325(17)   3662.     0.2883    0.2971     1254
   1.37649    0.288(16)   4115.     0.2883    0.2956     1255
   1.37722    0.289(16)   4096.     0.2883    0.2944     1256
   1.37796    0.265(15)   4456.     0.2882    0.2933     1257
   1.37869    0.299(16)   3944.     0.2882    0.2925     1258
   1.37942    0.316(16)   3715.     0.2882    0.2917     1259
   1.38015    0.300(16)   3909.     0.2881    0.2911     1260
   1.38089    0.298(16)   3925.     0.2881    0.2906     1261
   1.38162    0.282(16)   4133.     0.2881    0.2901     1262
   1.38235    0.302(16)   3857.     0.2880    0.2898     1263
   1.38308    0.306(16)   3797.     0.2880    0.2894     1264
   1.38382    0.293(16)   3958.     0.2880    0.2892     1265
   1.38455    0.305(16)   3795.     0.2880    0.2880     1266
   1.38528    0.286(16)   4030.     0.2879    0.2879     1267
   1.38601    0.293(16)   3928.     0.2879    0.2879     1268
   1.38675    0.271(15)   4237.     0.2879    0.2879     1269
   1.38748    0.304(16)   3771.     0.2878    0.2878     1270
   1.38821    0.293(16)   3899.     0.2878    0.2878     1271
   1.38894    0.305(16)   3748.     0.2878    0.2878     1272
   1.38968    0.322(17)   3538.     0.2877    0.2877     1273
   1.39041    0.286(16)   3978.     0.2877    0.2877     1274
   1.39114    0.270(15)   4193.     0.2877    0.2877     1275
   1.39187    0.299(16)   3780.     0.2876    0.2876     1276
   1.39261    0.263(15)   4296.     0.2876    0.2876     1277
   1.39334    0.271(16)   4151.     0.2876    0.2876     1278
   1.39407    0.272(16)   4132.     0.2875    0.2875     1279
   1.39480    0.270(16)   4155.     0.2875    0.2875     1280
   1.39554    0.301(16)   3719.     0.2875    0.2875     1281
   1.39627    0.287(16)   3887.     0.2874    0.2874     1282
   1.39700    0.282(16)   3956.     0.2874    0.2874     1283
   1.39773    0.301(16)   3692.     0.2874    0.2874     1284
   1.39846    0.250(15)   4430.     0.2874    0.2874     1285
   1.39920    0.293(16)   3772.     0.2873    0.2873     1286
   1.39993    0.302(17)   3654.     0.2873    0.2873     1287
   1.40066    0.283(16)   3895.     0.2873    0.2873     1288
   1.40139    0.261(15)   4215.     0.2872    0.2872     1289
   1.40213    0.263(15)   4168.     0.2872    0.2872     1290
   1.40286    0.288(16)   3795.     0.2872    0.2872     1291
   1.40359    0.295(16)   3707.     0.2871    0.2871     1292
   1.40432    0.280(16)   3897.     0.2871    0.2871     1293
   1.40506    0.296(16)   3675.     0.2871    0.2871     1294
   1.40579    0.266(16)   4077.     0.2870    0.2870     1295
   1.40652    0.284(16)   3808.     0.2870    0.2870     1296
   1.40725    0.278(16)   3893.     0.2870    0.2870     1297
   1.40799    0.278(16)   3875.     0.2870    0.2870     1298
   1.40872    0.269(16)   4005.     0.2869    0.2869     1299
   1.40945    0.277(16)   3880.     0.2869    0.2869     1300
   1.41018    0.278(16)   3850.     0.2869    0.2869     1301
   1.41092    0.273(16)   3912.     0.2868    0.2868     1302
   1.41165    0.303(17)   3521.     0.2868    0.2868     1303
   1.41238    0.304(17)   3495.     0.2868    0.2868     1304
   1.41311    0.278(16)   3822.     0.2867    0.2867     1305
   1.41385    0.274(16)   3871.     0.2867    0.2867     1306
   1.41458    0.267(16)   3963.     0.2867    0.2867     1307
   1.41531    0.269(16)   3918.     0.2867    0.2867     1308
   1.41604    0.277(16)   3794.     0.2866    0.2866     1309
   1.41678    0.282(16)   3726.     0.2866    0.2866     1310
   1.41751    0.282(16)   3710.     0.2866    0.2866     1311
   1.41824    0.309(17)   3385.     0.2865    0.2865     1312
   1.41897    0.283(16)   3690.     0.2865    0.2865     1313
   1.41971    0.274(16)   3803.     0.2865    0.2865     1314
   1.42044    0.296(17)   3503.     0.2864    0.2864     1315
   1.42117    0.272(16)   3810.     0.2864    0.2864     1316
   1.42190    0.280(16)   3688.     0.2864    0.2864     1317
   1.42263    0.292(17)   3538.     0.2864    0.2864     1318
   1.42337    0.260(16)   3957.     0.2863    0.2863     1319
   1.42410    0.290(17)   3542.     0.2863    0.2863     1320
   1.42483    0.277(16)   3701.     0.2863    0.2863     1321
   1.42556    0.257(16)   3979.     0.2862    0.2862     1322
   1.42630    0.273(16)   3735.     0.2862    0.2862     1323
   1.42703    0.286(17)   3565.     0.2862    0.2862     1324
   1.42776    0.275(16)   3689.     0.2862    0.2862     1325
   1.42849    0.260(16)   3896.     0.2861    0.2861     1326
   1.42923    0.253(16)   4000.     0.2861    0.2861     1327
   1.42996    0.282(17)   3577.     0.2861    0.2861     1328
   1.43069    0.274(16)   3678.     0.2860    0.2860     1329
   1.43142    0.262(16)   3843.     0.2860    0.2860     1330
   1.43216    0.287(17)   3494.     0.2860    0.2860     1331
   1.43289    0.289(17)   3467.     0.2859    0.2859     1332
   1.43362    0.275(17)   3627.     0.2859    0.2859     1333
   1.43435    0.287(17)   3473.     0.2859    0.2859     1334
   1.43509    0.302(17)   3296.     0.2859    0.2859     1335
   1.43582    0.300(17)   3304.     0.2858    0.2858     1336
   1.43655    0.279(17)   3552.     0.2858    0.2858     1337
   1.43728    0.274(17)   3602.     0.2858    0.2858     1338
   1.43802    0.279(17)   3534.     0.2857    0.2857     1339
   1.43875    0.262(16)   3751.     0.2857    0.2857     1340
   1.43948    0.302(18)   3244.     0.2857    0.2857     1341
   1.44021    0.282(17)   3476.     0.2857    0.2857     1342
   1.44095    0.289(17)   3375.     0.2856    0.2856     1343
   1.44168    0.277(17)   3522.     0.2856    0.2856     1344
   1.44241    0.261(16)   3728.     0.2856    0.2856     1345
   1.44314    0.323(18)   3002.     0.2855    0.2855     1346
   1.44388    0.299(18)   3237.     0.2855    0.2855     1347
   1.44461    0.280(17)   3449.     0.2855    0.2855     1348
   1.44534    0.274(17)   3526.     0.2855    0.2855     1349
   1.44607    0.273(17)   3524.     0.2854    0.2854     1350
   1.44681    0.285(17)   3367.     0.2854    0.2854     1351
   1.44754    0.253(16)   3781.     0.2854    0.2854     1352
   1.44827    0.299(18)   3198.     0.2853    0.2853     1353
   1.44900    0.272(17)   3503.     0.2853    0.2853     1354
   1.44973    0.261(17)   3642.     0.2853    0.2853     1355
   1.45047    0.291(18)   3260.     0.2853    0.2853     1356
   1.45120    0.268(17)   3540.     0.2852    0.2852     1357
   1.45193    0.280(17)   3378.     0.2852    0.2852     1358
   1.45266    0.301(18)   3139.     0.2852    0.2852     1359
   1.45340    0.305(18)   3092.     0.2851    0.2851     1360
   1.45413    0.270(17)   3479.     0.2851    0.2851     1361
   1.45486    0.260(17)   3607.     0.2851    0.2851     1362
   1.45559    0.302(18)   3096.     0.2851    0.2851     1363
   1.45633    0.258(17)   3620.     0.2850    0.2850     1364
   1.45706    0.263(17)   3546.     0.2850    0.2850     1365
   1.45779    0.284(17)   3276.     0.2850    0.2850     1366
   1.45852    0.250(16)   3713.     0.2850    0.2850     1367
   1.45926    0.233(16)   3971.     0.2849    0.2849     1368
   1.45999    0.264(17)   3500.     0.2849    0.2849     1369
   1.46072    0.252(17)   3665.     0.2849    0.2849     1370
   1.46145    0.284(18)   3244.     0.2848    0.2848     1371
   1.46219    0.271(17)   3386.     0.2848    0.2848     1372
   1.46292    0.279(17)   3279.     0.2848    0.2848     1373
   1.46365    0.274(17)   3330.     0.2848    0.2848     1374
   1.46438    0.262(17)   3482.     0.2847    0.2847     1375
   1.46512    0.276(17)   3301.     0.2847    0.2847     1376
   1.46585    0.288(18)   3149.     0.2847    0.2847     1377
   1.46658    0.282(18)   3209.     0.2846    0.2847     1378
   1.46731    0.282(18)   3208.     0.2846    0.2846     1379
   1.46805    0.303(18)   2973.     0.2846    0.2846     1380
   1.46878    0.277(18)   3245.     0.2846    0.2846     1381
   1.46951    0.295(18)   3048.     0.2845    0.2845     1382
   1.47024    0.295(18)   3035.     0.2845    0.2845     1383
   1.47098    0.276(18)   3242.     0.2845    0.2845     1384
   1.47171    0.283(18)   3152.     0.2845    0.2845     1385
   1.47244    0.295(18)   3019.     0.2844    0.2844     1386
   1.47317    0.302(18)   2939.     0.2844    0.2844     1387
   1.47390    0.285(18)   3112.     0.2844    0.2844     1388
   1.47464    0.301(18)   2936.     0.2844    0.2844     1389
   1.47537    0.258(17)   3424.     0.2843    0.2843     1390
   1.47610    0.265(17)   3322.     0.2843    0.2843     1391
   1.47683    0.293(18)   3000.     0.2843    0.2843     1392
   1.47757    0.296(18)   2964.     0.2842    0.2842     1393
   1.47830    0.284(18)   3082.     0.2842    0.2842     1394
   1.47903    0.282(18)   3094.     0.2842    0.2842     1395
   1.47976    0.278(18)   3131.     0.2842    0.2842     1396
   1.48050    0.273(18)   3184.     0.2841    0.2841     1397
   1.48123    0.250(17)   3477.     0.2841    0.2841     1398
   1.48196    0.270(18)   3211.     0.2841    0.2841     1399
   1.48269    0.273(18)   3170.     0.2841    0.2841     1400
   1.48343    0.284(18)   3040.     0.2840    0.2840     1401
   1.48416    0.270(18)   3184.     0.2840    0.2840     1402
   1.48489    0.283(18)   3040.     0.2840    0.2840     1403
   1.48562    0.283(18)   3027.     0.2840    0.2840     1404
   1.48636    0.298(19)   2872.     0.2839    0.2839     1405
   1.48709    0.273(18)   3130.     0.2839    0.2839     1406
   1.48782    0.285(18)   2988.     0.2839    0.2839     1407
   1.48855    0.259(17)   3287.     0.2838    0.2838     1408
   1.48929    0.271(18)   3131.     0.2838    0.2838     1409
   1.49002    0.267(18)   3173.     0.2838    0.2838     1410
   1.49075    0.285(18)   2963.     0.2838    0.2838     1411
   1.49148    0.276(18)   3051.     0.2837    0.2837     1412
   1.49222    0.265(18)   3175.     0.2837    0.2837     1413
   1.49295    0.287(18)   2925.     0.2837    0.2837     1414
   1.49368    0.259(18)   3235.     0.2837    0.2837     1415
   1.49441    0.258(18)   3237.     0.2836    0.2836     1416
   1.49515    0.307(19)   2719.     0.2836    0.2836     1417
   1.49588    0.282(18)   2950.     0.2836    0.2836     1418
   1.49661    0.290(19)   2864.     0.2836    0.2836     1419
   1.49734    0.271(18)   3055.     0.2835    0.2835     1420
   1.49808    0.305(19)   2716.     0.2835    0.2835     1421
   1.49881    0.299(19)   2759.     0.2835    0.2835     1422
   1.49954    0.258(18)   3187.     0.2835    0.2835     1423
   1.50027    0.258(18)   3188.     0.2834    0.2834     1424
   1.50100    0.267(18)   3073.     0.2834    0.2834     1425
   1.50174    0.248(17)   3302.     0.2834    0.2834     1426
   1.50247    0.285(19)   2864.     0.2834    0.2834     1427
   1.50320    0.307(19)   2658.     0.2833    0.2833     1428
   1.50393    0.269(18)   3022.     0.2833    0.2833     1429
   1.50467    0.280(19)   2903.     0.2833    0.2833     1430
   1.50540    0.262(18)   3096.     0.2832    0.2832     1431
   1.50613    0.282(19)   2866.     0.2832    0.2832     1432
   1.50686    0.247(17)   3270.     0.2832    0.2832     1433
   1.50760    0.279(19)   2880.     0.2832    0.2832     1434
   1.50833    0.287(19)   2794.     0.2831    0.2831     1435
   1.50906    0.269(18)   2975.     0.2831    0.2831     1436
   1.50979    0.254(18)   3152.     0.2831    0.2831     1437
   1.51053    0.258(18)   3094.     0.2831    0.2831     1438
   1.51126    0.280(19)   2846.     0.2830    0.2830     1439
   1.51199    0.282(19)   2821.     0.2830    0.2830     1440
   1.51272    0.268(18)   2954.     0.2830    0.2830     1441
   1.51346    0.253(18)   3133.     0.2830    0.2830     1442
   1.51419    0.252(18)   3136.     0.2829    0.2829     1443
   1.51492    0.297(19)   2656.     0.2829    0.2829     1444
   1.51565    0.294(19)   2679.     0.2829    0.2829     1445
   1.51639    0.287(19)   2739.     0.2829    0.2829     1446
   1.51712    0.276(19)   2841.     0.2828    0.2828     1447
   1.51785    0.267(18)   2924.     0.2828    0.2828     1448
   1.51858    0.233(17)   3344.     0.2828    0.2828     1449
   1.51932    0.276(19)   2819.     0.2828    0.2828     1450
   1.52005    0.263(18)   2958.     0.2827    0.2827     1451
   1.52078    0.280(19)   2769.     0.2827    0.2827     1452
   1.52151    0.257(18)   3007.     0.2827    0.2827     1453
   1.52225    0.268(19)   2879.     0.2827    0.2827     1454
   1.52298    0.269(19)   2867.     0.2826    0.2826     1455
   1.52371    0.291(19)   2638.     0.2826    0.2826     1456
   1.52444    0.250(18)   3066.     0.2826    0.2826     1457
   1.52517    0.247(18)   3101.     0.2826    0.2826     1458
   1.52591    0.253(18)   3024.     0.2825    0.2825     1459
   1.52664    0.257(18)   2966.     0.2825    0.2825     1460
   1.52737    0.262(19)   2909.     0.2825    0.2825     1461
   1.52810    0.255(18)   2971.     0.2825    0.2825     1462
   1.52884    0.282(19)   2682.     0.2824    0.2824     1463
   1.52957    0.283(19)   2671.     0.2824    0.2824     1464
   1.53030    0.240(18)   3145.     0.2824    0.2824     1465
   1.53103    0.240(18)   3132.     0.2824    0.2824     1466
   1.53177    0.281(19)   2676.     0.2823    0.2823     1467
   1.53250    0.247(18)   3039.     0.2823    0.2823     1468
   1.53323    0.315(21)   2372.     0.2823    0.2823     1469
   1.53396    0.283(19)   2642.     0.2823    0.2823     1470
   1.53470    0.270(19)   2762.     0.2823    0.2823     1471
   1.53543    0.308(20)   2414.     0.2822    0.2822     1472
   1.53616    0.259(19)   2868.     0.2822    0.2822     1473
   1.53689    0.277(19)   2675.     0.2822    0.2822     1474
   1.53763    0.267(19)   2772.     0.2822    0.2822     1475
   1.53836    0.259(19)   2847.     0.2821    0.2821     1476
   1.53909    0.276(19)   2668.     0.2821    0.2821     1477
   1.53982    0.287(20)   2556.     0.2821    0.2821     1478
   1.54056    0.236(18)   3105.     0.2821    0.2821     1479
   1.54129    0.262(19)   2786.     0.2820    0.2820     1480
   1.54202    0.286(20)   2549.     0.2820    0.2820     1481
   1.54275    0.262(19)   2777.     0.2820    0.2820     1482
   1.54349    0.254(19)   2856.     0.2820    0.2820     1483
   1.54422    0.291(20)   2493.     0.2819    0.2819     1484
   1.54495    0.286(20)   2531.     0.2819    0.2819     1485
   1.54568    0.284(20)   2545.     0.2819    0.2819     1486
   1.54642    0.270(19)   2665.     0.2819    0.2819     1487
   1.54715    0.217(17)   3317.     0.2818    0.2818     1488
   1.54788    0.241(18)   2979.     0.2818    0.2818     1489
   1.54861    0.267(19)   2687.     0.2818    0.2818     1490
   1.54935    0.267(19)   2676.     0.2818    0.2818     1491
   1.55008    0.259(19)   2751.     0.2817    0.2817     1492
   1.55081    0.282(20)   2522.     0.2817    0.2817     1493
   1.55154    0.266(19)   2671.     0.2817    0.2817     1494
   1.55227    0.240(18)   2957.     0.2817    0.2817     1495
   1.55301    0.232(18)   3053.     0.2817    0.2817     1496
   1.55374    0.270(20)   2610.     0.2816    0.2816     1497
   1.55447    0.305(21)   2309.     0.2816    0.2816     1498
   1.55520    0.279(20)   2523.     0.2816    0.2816     1499
   1.55594    0.271(20)   2592.     0.2816    0.2816     1500
   1.55667    0.274(20)   2554.     0.2815    0.2815     1501
   1.55740    0.246(19)   2839.     0.2815    0.2815     1502
   1.55813    0.244(19)   2861.     0.2815    0.2815     1503
   1.55887    0.254(19)   2736.     0.2815    0.2815     1504
   1.55960    0.269(20)   2579.     0.2814    0.2814     1505
   1.56033    0.267(20)   2597.     0.2814    0.2814     1506
   1.56106    0.266(20)   2600.     0.2814    0.2814     1507
   1.56180    0.259(19)   2662.     0.2814    0.2814     1508
   1.56253    0.257(19)   2681.     0.2813    0.2813     1509
   1.56326    0.278(20)   2474.     0.2813    0.2813     1510
   1.56399    0.261(20)   2629.     0.2813    0.2813     1511
   1.56473    0.235(19)   2911.     0.2813    0.2813     1512
   1.56546    0.262(20)   2607.     0.2813    0.2813     1513
   1.56619    0.230(18)   2961.     0.2812    0.2812     1514
   1.56692    0.270(20)   2516.     0.2812    0.2812     1515
   1.56766    0.277(20)   2452.     0.2812    0.2812     1516
   1.56839    0.267(20)   2536.     0.2812    0.2812     1517
   1.56912    0.245(19)   2754.     0.2811    0.2811     1518
   1.56985    0.280(20)   2409.     0.2811    0.2811     1519
   1.57059    0.261(20)   2577.     0.2811    0.2811     1520
   1.57132    0.292(21)   2304.     0.2811    0.2811     1521
   1.57205    0.259(20)   2585.     0.2810    0.2810     1522
   1.57278    0.260(20)   2574.     0.2810    0.2810     1523
   1.57352    0.280(20)   2385.     0.2810    0.2810     1524
   1.57425    0.269(20)   2482.     0.2810    0.2810     1525
   1.57498    0.256(20)   2603.     0.2810    0.2810     1526
   1.57571    0.267(20)   2489.     0.2809    0.2809     1527
   1.57644    0.264(20)   2508.     0.2809    0.2809     1528
   1.57718    0.299(21)   2207.     0.2809    0.2809     1529
   1.57791    0.249(19)   2654.     0.2809    0.2809     1530
   1.57864    0.260(20)   2535.     0.2808    0.2808     1531
   1.57937    0.265(20)   2481.     0.2808    0.2808     1532
   1.58011    0.247(19)   2654.     0.2808    0.2808     1533
   1.58084    0.257(20)   2549.     0.2808    0.2808     1534
   1.58157    0.250(20)   2616.     0.2808    0.2808     1535
   1.58230    0.276(21)   2359.     0.2807    0.2807     1536
   1.58304    0.266(20)   2445.     0.2807    0.2807     1537
   1.58377    0.245(19)   2649.     0.2807    0.2807     1538
   1.58450    0.267(20)   2425.     0.2807    0.2807     1539
   1.58523    0.295(21)   2187.     0.2806    0.2806     1540
   1.58597    0.264(20)   2447.     0.2806    0.2806     1541
   1.58670    0.238(19)   2708.     0.2806    0.2806     1542
   1.58743    0.258(20)   2486.     0.2806    0.2806     1543
   1.58816    0.281(21)   2283.     0.2806    0.2806     1544
   1.58890    0.288(21)   2224.     0.2805    0.2805     1545
   1.58963    0.287(21)   2227.     0.2805    0.2805     1546
   1.59036    0.275(21)   2320.     0.2805    0.2805     1547
   1.59109    0.271(21)   2350.     0.2805    0.2805     1548
   1.59183    0.271(21)   2341.     0.2804    0.2804     1549
   1.59256    0.251(20)   2522.     0.2804    0.2804     1550
   1.59329    0.250(20)   2528.     0.2804    0.2804     1551
   1.59402    0.249(20)   2533.     0.2804    0.2804     1552
   1.59476    0.262(20)   2401.     0.2804    0.2804     1553
   1.59549    0.261(20)   2405.     0.2803    0.2803     1554
   1.59622    0.255(20)   2455.     0.2803    0.2803     1555
   1.59695    0.238(20)   2626.     0.2803    0.2803     1556
   1.59769    0.274(21)   2279.     0.2803    0.2803     1557
   1.59842    0.297(22)   2098.     0.2802    0.2802     1558
   1.59915    0.293(22)   2124.     0.2802    0.2802     1559
   1.59988    0.271(21)   2291.     0.2802    0.2802     1560
   1.60062    0.284(21)   2178.     0.2802    0.2802     1561
   1.60135    0.274(21)   2259.     0.2802    0.2802     1562
   1.60208    0.238(20)   2587.     0.2801    0.2801     1563
   1.60281    0.268(21)   2295.     0.2801    0.2801     1564
   1.60354    0.298(22)   2061.     0.2801    0.2801     1565
   1.60428    0.246(20)   2487.     0.2801    0.2801     1566
   1.60501    0.276(21)   2213.     0.2800    0.2801     1567
   1.60574    0.256(20)   2388.     0.2800    0.2800     1568
   1.60647    0.273(21)   2235.     0.2800    0.2800     1569
   1.60721    0.270(21)   2253.     0.2800    0.2800     1570
   1.60794    0.270(21)   2244.     0.2800    0.2800     1571
   1.60867    0.281(22)   2156.     0.2799    0.2799     1572
   1.60940    0.280(22)   2160.     0.2799    0.2799     1573
   1.61014    0.249(20)   2423.     0.2799    0.2799     1574
   1.61087    0.294(22)   2045.     0.2799    0.2799     1575
   1.61160    0.250(20)   2404.     0.2799    0.2799     1576
   1.61233    0.274(21)   2189.     0.2798    0.2798     1577
   1.61307    0.247(20)   2416.     0.2798    0.2798     1578
   1.61380    0.297(22)   2012.     0.2798    0.2798     1579
   1.61453    0.254(21)   2349.     0.2798    0.2798     1580
   1.61526    0.268(21)   2222.     0.2798    0.2798     1581
   1.61600    0.303(23)   1954.     0.2797    0.2797     1582
   1.61673    0.264(21)   2246.     0.2797    0.2819     1583
   1.61746    0.261(21)   2266.     0.2797    0.2826     1584
   1.61819    0.266(21)   2213.     0.2797    0.2835     1585
   1.61893    0.245(20)   2403.     0.2796    0.2847     1586
   1.61966    0.259(21)   2268.     0.2796    0.2863     1587
   1.62039    0.244(20)   2401.     0.2796    0.2885     1588
   1.62112    0.267(21)   2192.     0.2796    0.2913     1589
   1.62186    0.259(21)   2255.     0.2796    0.2950     1590
   1.62259    0.259(21)   2246.     0.2795    0.3000     1591
   1.62332    0.284(22)   2047.     0.2795    0.3065     1592
   1.62405    0.260(21)   2227.     0.2795    0.3152     1593
   1.62478    0.280(22)   2068.     0.2795    0.3267     1594
   1.62552    0.291(22)   1986.     0.2795    0.3418     1595
   1.62625    0.354(25)   1629.     0.2794    0.3618     1596
   1.62698    0.320(24)   1798.     0.2794    0.3882     1597
   1.62771    0.380(26)   1512.     0.2794    0.4227     1598
   1.62845    0.421(27)   1362.     0.2794    0.4678     1599
   1.62918    0.479(29)   1193.     0.2794    0.5261     1600
   1.62991    0.661(34)   864.      0.2793    0.6003     1601
   1.63064    0.80(4)     711.      0.279     0.693      1602
   1.63138    0.88(4)     647.      0.279     0.806      1603
   1.63211    1.04(4)     544.      0.279     0.940      1604
   1.63284    1.21(5)     467.      0.279     1.092      1605
   1.63357    1.32(5)     429.      0.279     1.255      1606
   1.63431    1.50(5)     375.      0.279     1.422      1607
   1.63504    1.50(5)     376.      0.279     1.579      1608
   1.63577    1.71(6)     327.8     0.279     1.713      1609
   1.63650    1.73(6)     323.1     0.279     1.812      1610
   1.63724    1.77(6)     316.0     0.279     1.865      1611
   1.63797    1.79(6)     311.5     0.279     1.869      1612
   1.63870    1.83(6)     303.9     0.279     1.826      1613
   1.63943    1.78(6)     312.8     0.279     1.740      1614
   1.64017    1.65(5)     335.3     0.279     1.624      1615
   1.64090    1.42(5)     389.      0.279     1.489      1616
   1.64163    1.28(5)     431.      0.279     1.345      1617
   1.64236    1.13(5)     487.      0.279     1.204      1618
   1.64310    0.99(4)     554.      0.279     1.072      1619
   1.64383    0.93(4)     588.      0.279     0.952      1620
   1.64456    0.74(4)     743.      0.279     0.847      1621
   1.64529    0.77(4)     708.      0.279     0.756      1622
   1.64603    0.618(34)   883.      0.2789    0.6786     1623
   1.64676    0.555(32)   981.      0.2789    0.6132     1624
   1.64749    0.528(31)   1028.     0.2788    0.5583     1625
   1.64822    0.515(31)   1053.     0.2788    0.5124     1626
   1.64896    0.408(27)   1325.     0.2788    0.4739     1627
   1.64969    0.374(26)   1443.     0.2788    0.4417     1628
   1.65042    0.388(27)   1389.     0.2788    0.4149     1629
   1.65115    0.398(27)   1351.     0.2787    0.3924     1630
   1.65188    0.373(26)   1440.     0.2787    0.3737     1631
   1.65262    0.338(25)   1584.     0.2787    0.3580     1632
   1.65335    0.298(24)   1796.     0.2787    0.3449     1633
   1.65408    0.304(24)   1756.     0.2787    0.3340     1634
   1.65481    0.310(24)   1717.     0.2786    0.3249     1635
   1.65555    0.286(23)   1856.     0.2786    0.3172     1636
   1.65628    0.308(24)   1724.     0.2786    0.3109     1637
   1.65701    0.297(24)   1782.     0.2786    0.3055     1638
   1.65774    0.237(21)   2229.     0.2786    0.3011     1639
   1.65848    0.321(25)   1642.     0.2785    0.2973     1640
   1.65921    0.344(26)   1527.     0.2785    0.2942     1641
   1.65994    0.290(23)   1811.     0.2785    0.2916     1642
   1.66067    0.265(23)   1972.     0.2785    0.2894     1643
   1.66141    0.255(22)   2053.     0.2785    0.2876     1644
   1.66214    0.280(23)   1862.     0.2784    0.2861     1645
   1.66287    0.275(23)   1894.     0.2784    0.2848     1646
   1.66360    0.333(25)   1559.     0.2784    0.2837     1647
   1.66434    0.276(23)   1878.     0.2784    0.2784     1648
   1.66507    0.290(24)   1783.     0.2784    0.2784     1649
   1.66580    0.267(23)   1930.     0.2783    0.2783     1650
   1.66653    0.243(22)   2123.     0.2783    0.2783     1651
   1.66727    0.272(23)   1887.     0.2783    0.2783     1652
   1.66800    0.255(22)   2009.     0.2783    0.2783     1653
   1.66873    0.281(23)   1820.     0.2783    0.2783     1654
   1.66946    0.251(22)   2039.     0.2782    0.2782     1655
   1.67020    0.288(24)   1768.     0.2782    0.2782     1656
   1.67093    0.289(24)   1761.     0.2782    0.2782     1657
   1.67166    0.295(24)   1719.     0.2782    0.2782     1658
   1.67239    0.278(23)   1821.     0.2782    0.2782     1659
   1.67313    0.279(23)   1813.     0.2781    0.2781     1660
   1.67386    0.271(23)   1859.     0.2781    0.2781     1661
   1.67459    0.252(22)   1997.     0.2781    0.2781     1662
   1.67532    0.291(24)   1730.     0.2781    0.2781     1663
   1.67605    0.281(24)   1784.     0.2781    0.2781     1664
   1.67679    0.314(25)   1596.     0.2781    0.2781     1665
   1.67752    0.262(23)   1904.     0.2780    0.2780     1666
   1.67825    0.245(22)   2036.     0.2780    0.2780     1667
   1.67898    0.225(21)   2209.     0.2780    0.2780     1668
   1.67972    0.232(22)   2143.     0.2780    0.2780     1669
   1.68045    0.266(23)   1859.     0.2780    0.2780     1670
   1.68118    0.283(24)   1746.     0.2779    0.2779     1671
   1.68191    0.268(23)   1844.     0.2779    0.2779     1672
   1.68265    0.286(24)   1719.     0.2779    0.2779     1673
   1.68338    0.279(24)   1762.     0.2779    0.2779     1674
   1.68411    0.267(23)   1835.     0.2779    0.2779     1675
   1.68484    0.274(24)   1787.     0.2778    0.2778     1676
   1.68558    0.272(24)   1793.     0.2778    0.2778     1677
   1.68631    0.242(22)   2012.     0.2778    0.2778     1678
   1.68704    0.261(23)   1862.     0.2778    0.2778     1679
   1.68777    0.272(24)   1784.     0.2778    0.2778     1680
   1.68851    0.345(27)   1404.     0.2777    0.2777     1681
   1.68924    0.308(25)   1568.     0.2777    0.2777     1682
   1.68997    0.319(26)   1510.     0.2777    0.2777     1683
   1.69070    0.299(25)   1609.     0.2777    0.2777     1684
   1.69144    0.244(23)   1972.     0.2777    0.2777     1685
   1.69217    0.271(24)   1767.     0.2777    0.2777     1686
   1.69290    0.247(23)   1939.     0.2776    0.2776     1687
   1.69363    0.249(23)   1915.     0.2776    0.2776     1688
   1.69437    0.277(24)   1719.     0.2776    0.2776     1689
   1.69510    0.271(24)   1752.     0.2776    0.2776     1690
   1.69583    0.266(24)   1786.     0.2776    0.2776     1691
   1.69656    0.228(22)   2075.     0.2775    0.2775     1692
   1.69730    0.288(25)   1641.     0.2775    0.2775     1693
   1.69803    0.248(23)   1900.     0.2775    0.2775     1694
   1.69876    0.289(25)   1627.     0.2775    0.2775     1695
   1.69949    0.307(26)   1531.     0.2775    0.2775     1696
   1.70022    0.284(25)   1650.     0.2774    0.2774     1697
   1.70096    0.252(23)   1853.     0.2774    0.2774     1698
   1.70169    0.268(24)   1742.     0.2774    0.2774     1699
   1.70242    0.264(24)   1763.     0.2774    0.2774     1700
   1.70315    0.299(25)   1553.     0.2774    0.2774     1701
   1.70389    0.254(23)   1822.     0.2774    0.2774     1702
   1.70462    0.257(24)   1799.     0.2773    0.2773     1703
   1.70535    0.303(26)   1523.     0.2773    0.2773     1704
   1.70608    0.302(26)   1528.     0.2773    0.2773     1705
   1.70682    0.278(25)   1652.     0.2773    0.2773     1706
   1.70755    0.292(25)   1572.     0.2773    0.2773     1707
   1.70828    0.286(25)   1601.     0.2772    0.2772     1708
   1.70901    0.258(24)   1770.     0.2772    0.2772     1709
   1.70975    0.285(25)   1600.     0.2772    0.2772     1710
   1.71048    0.266(24)   1712.     0.2772    0.2772     1711
   1.71121    0.258(24)   1763.     0.2772    0.2772     1712
   1.71194    0.236(23)   1920.     0.2772    0.2772     1713
   1.71268    0.294(26)   1538.     0.2771    0.2771     1714
   1.71341    0.275(25)   1643.     0.2771    0.2771     1715
   1.71414    0.258(24)   1749.     0.2771    0.2771     1716
   1.71487    0.307(26)   1464.     0.2771    0.2771     1717
   1.71561    0.259(24)   1734.     0.2771    0.2771     1718
   1.71634    0.288(25)   1553.     0.2770    0.2770     1719
   1.71707    0.322(27)   1385.     0.2770    0.2770     1720
   1.71780    0.276(25)   1615.     0.2770    0.2770     1721
   1.71854    0.252(24)   1766.     0.2770    0.2770     1722
   1.71927    0.306(26)   1448.     0.2770    0.2770     1723
   1.72000    0.318(27)   1391.     0.2770    0.2770     1724
   1.72073    0.274(25)   1614.     0.2769    0.2769     1725
   1.72147    0.290(26)   1520.     0.2769    0.2769     1726
   1.72220    0.259(24)   1699.     0.2769    0.2769     1727
   1.72293    0.260(24)   1692.     0.2769    0.2769     1728
   1.72366    0.287(26)   1525.     0.2769    0.2769     1729
   1.72440    0.284(25)   1543.     0.2768    0.2769     1730
   1.72513    0.289(26)   1512.     0.2768    0.2768     1731
   1.72586    0.308(27)   1416.     0.2768    0.2768     1732
   1.72659    0.299(26)   1453.     0.2768    0.2768     1733
   1.72732    0.288(26)   1505.     0.2768    0.2768     1734
   1.72806    0.293(26)   1475.     0.2768    0.2768     1735
   1.72879    0.299(26)   1446.     0.2767    0.2767     1736
   1.72952    0.239(24)   1803.     0.2767    0.2767     1737
   1.73025    0.265(25)   1623.     0.2767    0.2767     1738
   1.73099    0.322(27)   1335.     0.2767    0.2767     1739
   1.73172    0.290(26)   1479.     0.2767    0.2767     1740
   1.73245    0.316(27)   1353.     0.2767    0.2767     1741
   1.73318    0.293(26)   1455.     0.2766    0.2766     1742
   1.73392    0.289(26)   1472.     0.2766    0.2766     1743
   1.73465    0.257(25)   1654.     0.2766    0.2766     1744
   1.73538    0.278(26)   1522.     0.2766    0.2766     1745
   1.73611    0.345(29)   1225.     0.2766    0.2766     1746
   1.73685    0.277(26)   1522.     0.2765    0.2819     1747
   1.73758    0.325(28)   1294.     0.2765    0.2835     1748
   1.73831    0.317(27)   1328.     0.2765    0.2855     1749
   1.73904    0.274(26)   1529.     0.2765    0.2882     1750
   1.73978    0.301(27)   1390.     0.2765    0.2916     1751
   1.74051    0.338(28)   1236.     0.2765    0.2960     1752
   1.74124    0.355(29)   1173.     0.2764    0.3018     1753
   1.74197    0.317(28)   1310.     0.2764    0.3093     1754
   1.74271    0.393(31)   1056.     0.2764    0.3190     1755
   1.74344    0.314(28)   1318.     0.2764    0.3315     1756
   1.74417    0.366(30)   1130.     0.2764    0.3477     1757
   1.74490    0.378(30)   1089.     0.2764    0.3686     1758
   1.74564    0.52(4)     787.      0.276     0.396      1759
   1.74637    0.52(4)     795.      0.276     0.430      1760
   1.74710    0.496(35)   827.      0.2763    0.4742     1761
   1.74783    0.61(4)     666.      0.276     0.530      1762
   1.74857    0.60(4)     676.      0.276     0.601      1763
   1.74930    0.61(4)     671.      0.276     0.690      1764
   1.75003    0.71(4)     573.      0.276     0.801      1765
   1.75076    0.87(5)     465.      0.276     0.936      1766
   1.75149    1.13(5)     356.      0.276     1.100      1767
   1.75223    1.26(6)     320.6     0.276     1.296      1768
   1.75296    1.51(6)     266.7     0.276     1.527      1769
   1.75369    1.82(7)     220.9     0.276     1.792      1770
   1.75442    2.14(7)     187.2     0.276     2.092      1771
   1.75516    2.43(8)     164.4     0.276     2.423      1772
   1.75589    2.92(9)     136.9     0.276     2.779      1773
   1.75662    3.36(9)     118.6     0.276     3.152      1774
   1.75735    3.72(10)    107.0     0.276     3.529      1775
   1.75809    3.90(10)    101.6     0.276     3.898      1776
   1.75882    4.31(10)    91.9      0.276     4.244      1777
   1.75955    4.65(11)    85.0      0.276     4.550      1778
   1.76028    5.01(11)    78.7      0.276     4.802      1779
   1.76102    5.33(12)    73.8      0.276     4.988      1780
   1.76175    5.06(11)    77.5      0.276     5.098      1781
   1.76248    5.06(11)    77.4      0.276     5.128      1782
   1.76321    5.12(11)    76.3      0.276     5.077      1783
   1.76395    4.77(11)    81.7      0.276     4.949      1784
   1.76468    4.71(11)    82.5      0.276     4.752      1785
   1.76541    4.41(11)    88.1      0.276     4.498      1786
   1.76614    4.08(10)    94.8      0.276     4.200      1787
   1.76688    3.80(10)    101.7     0.276     3.873      1788
   1.76761    3.54(10)    108.9     0.276     3.530      1789
   1.76834    3.09(9)     124.4     0.276     3.184      1790
   1.76907    2.61(8)     147.0     0.276     2.847      1791
   1.76981    2.42(8)     158.2     0.276     2.526      1792
   1.77054    2.11(7)     181.2     0.276     2.228      1793
   1.77127    1.98(7)     192.8     0.276     1.956      1794
   1.77200    1.86(7)     204.4     0.276     1.713      1795
   1.77274    1.53(6)     248.4     0.276     1.498      1796
   1.77347    1.37(6)     276.8     0.276     1.311      1797
   1.77420    1.25(6)     302.4     0.276     1.149      1798
   1.77493    1.02(5)     369.      0.276     1.010      1799
   1.77566    0.93(5)     406.      0.276     0.893      1800
   1.77640    0.81(5)     461.      0.276     0.793      1801
   1.77713    0.74(4)     506.      0.276     0.709      1802
   1.77786    0.78(5)     483.      0.276     0.638      1803
   1.77859    0.66(4)     566.      0.276     0.579      1804
   1.77933    0.57(4)     657.      0.276     0.529      1805
   1.78006    0.56(4)     667.      0.276     0.487      1806
   1.78079    0.56(4)     658.      0.276     0.453      1807
   1.78152    0.52(4)     709.      0.276     0.423      1808
   1.78226    0.51(4)     725.      0.276     0.399      1809
   1.78299    0.445(35)   827.      0.2755    0.3788     1810
   1.78372    0.435(34)   844.      0.2755    0.3618     1811
   1.78445    0.45(4)     810.      0.275     0.348      1812
   1.78519    0.396(33)   924.      0.2754    0.3357     1813
   1.78592    0.438(35)   833.      0.2754    0.3258     1814
   1.78665    0.357(31)   1021.     0.2754    0.3175     1815
   1.78738    0.402(33)   905.      0.2754    0.3106     1816
   1.78812    0.391(33)   927.      0.2754    0.3048     1817
   1.78885    0.370(32)   977.      0.2754    0.2999     1818
   1.78958    0.296(29)   1219.     0.2753    0.2959     1819
   1.79031    0.352(31)   1022.     0.2753    0.2925     1820
   1.79105    0.303(29)   1186.     0.2753    0.2896     1821
   1.79178    0.401(33)   894.      0.2753    0.2873     1822
   1.79251    0.388(33)   922.      0.2753    0.2853     1823
   1.79324    0.364(32)   981.      0.2753    0.2836     1824
   1.79398    0.314(30)   1134.     0.2752    0.2822     1825
   1.79471    0.371(32)   958.      0.2752    0.2752     1826
   1.79544    0.276(28)   1284.     0.2752    0.2752     1827
   1.79617    0.325(30)   1089.     0.2752    0.2752     1828
   1.79691    0.328(30)   1075.     0.2752    0.2752     1829
   1.79764    0.343(31)   1026.     0.2752    0.2752     1830
   1.79837    0.310(30)   1134.     0.2751    0.2751     1831
   1.79910    0.354(32)   992.      0.2751    0.2751     1832
   1.79984    0.331(31)   1056.     0.2751    0.2751     1833
   1.80057    0.369(33)   945.      0.2751    0.2751     1834
   1.80130    0.342(31)   1020.     0.2751    0.2751     1835
   1.80203    0.288(29)   1208.     0.2751    0.2751     1836
   1.80276    0.332(31)   1046.     0.2751    0.2751     1837
   1.80350    0.318(30)   1089.     0.2750    0.2750     1838
   1.80423    0.336(31)   1028.     0.2750    0.2750     1839
   1.80496    0.325(31)   1060.     0.2750    0.2750     1840
   1.80569    0.305(30)   1125.     0.2750    0.2750     1841
   1.80643    0.312(30)   1099.     0.2750    0.2750     1842
   1.80716    0.319(31)   1074.     0.2750    0.2750     1843
   1.80789    0.290(29)   1177.     0.2749    0.2749     1844
   1.80862    0.279(29)   1221.     0.2749    0.2749     1845
   1.80936    0.271(28)   1255.     0.2749    0.2749     1846
   1.81009    0.336(31)   1008.     0.2749    0.2749     1847
   1.81082    0.331(31)   1022.     0.2749    0.2749     1848
   1.81155    0.267(28)   1266.     0.2749    0.2749     1849
   1.81229    0.258(28)   1303.     0.2748    0.2749     1850
   1.81302    0.339(32)   990.      0.2748    0.2748     1851
   1.81375    0.307(30)   1091.     0.2748    0.2748     1852
   1.81448    0.287(29)   1165.     0.2748    0.2748     1853
   1.81522    0.333(32)   1003.     0.2748    0.2748     1854
   1.81595    0.315(31)   1056.     0.2748    0.2748     1855
   1.81668    0.262(28)   1268.     0.2748    0.2748     1856
   1.81741    0.308(30)   1077.     0.2747    0.2747     1857
   1.81815    0.336(32)   985.      0.2747    0.2747     1858
   1.81888    0.279(29)   1183.     0.2747    0.2747     1859
   1.81961    0.322(31)   1022.     0.2747    0.2747     1860
   1.82034    0.289(30)   1135.     0.2747    0.2747     1861
   1.82108    0.308(31)   1062.     0.2747    0.2747     1862
   1.82181    0.278(29)   1174.     0.2746    0.2746     1863
   1.82254    0.294(30)   1107.     0.2746    0.2746     1864
   1.82327    0.274(29)   1189.     0.2746    0.2746     1865
   1.82401    0.317(31)   1023.     0.2746    0.2746     1866
   1.82474    0.318(31)   1018.     0.2746    0.2746     1867
   1.82547    0.291(30)   1110.     0.2746    0.2746     1868
   1.82620    0.248(28)   1298.     0.2746    0.2746     1869
   1.82693    0.323(32)   994.      0.2745    0.2745     1870
   1.82767    0.349(33)   919.      0.2745    0.2745     1871
   1.82840    0.294(30)   1090.     0.2745    0.2745     1872
   1.82913    0.298(31)   1073.     0.2745    0.2745     1873
   1.82986    0.283(30)   1127.     0.2745    0.2745     1874
   1.83060    0.267(29)   1188.     0.2745    0.2745     1875
   1.83133    0.224(27)   1416.     0.2745    0.2745     1876
   1.83206    0.319(32)   991.      0.2744    0.2744     1877
   1.83279    0.330(32)   957.      0.2744    0.2744     1878
   1.83353    0.270(29)   1166.     0.2744    0.2744     1879
   1.83426    0.271(29)   1160.     0.2744    0.2744     1880
   1.83499    0.255(29)   1227.     0.2744    0.2744     1881
   1.83572    0.288(30)   1086.     0.2744    0.2744     1882
   1.83646    0.289(30)   1080.     0.2743    0.2743     1883
   1.83719    0.338(33)   922.      0.2743    0.2743     1884
   1.83792    0.229(27)   1357.     0.2743    0.2743     1885
   1.83865    0.278(30)   1115.     0.2743    0.2743     1886
   1.83939    0.304(31)   1015.     0.2743    0.2743     1887
   1.84012    0.276(30)   1117.     0.2743    0.2743     1888
   1.84085    0.306(32)   1005.     0.2743    0.2743     1889
   1.84158    0.274(30)   1120.     0.2742    0.2742     1890
   1.84232    0.275(30)   1114.     0.2742    0.2742     1891
   1.84305    0.305(32)   1002.     0.2742    0.2742     1892
   1.84378    0.282(30)   1078.     0.2742    0.2742     1893
   1.84451    0.260(29)   1168.     0.2742    0.2742     1894
   1.84525    0.234(28)   1293.     0.2742    0.2742     1895
   1.84598    0.278(30)   1088.     0.2742    0.2742     1896
   1.84671    0.279(30)   1083.     0.2741    0.2741     1897
   1.84744    0.276(30)   1090.     0.2741    0.2741     1898
   1.84818    0.273(30)   1098.     0.2741    0.2741     1899
   1.84891    0.284(31)   1054.     0.2741    0.2741     1900
   1.84964    0.342(34)   874.      0.2741    0.2741     1901
   1.85037    0.295(31)   1009.     0.2741    0.2741     1902
   1.85110    0.286(31)   1039.     0.2740    0.2740     1903
   1.85184    0.250(29)   1188.     0.2740    0.2740     1904
   1.85257    0.260(30)   1136.     0.2740    0.2740     1905
   1.85330    0.285(31)   1036.     0.2740    0.2740     1906
   1.85403    0.272(30)   1083.     0.2740    0.2740     1907
   1.85477    0.293(32)   1002.     0.2740    0.2740     1908
   1.85550    0.270(30)   1086.     0.2740    0.2740     1909
   1.85623    0.298(32)   981.      0.2739    0.2739     1910
   1.85696    0.271(30)   1075.     0.2739    0.2739     1911
   1.85770    0.279(31)   1043.     0.2739    0.2739     1912
   1.85843    0.228(28)   1274.     0.2739    0.2739     1913
   1.85916    0.283(31)   1021.     0.2739    0.2739     1914
   1.85989    0.288(32)   1003.     0.2739    0.2739     1915
   1.86063    0.288(32)   998.      0.2739    0.2739     1916
   1.86136    0.230(28)   1249.     0.2738    0.2738     1917
   1.86209    0.227(28)   1262.     0.2738    0.2738     1918
   1.86282    0.245(29)   1166.     0.2738    0.2738     1919
   1.86356    0.284(32)   1003.     0.2738    0.2738     1920
   1.86429    0.271(31)   1050.     0.2738    0.2738     1921
   1.86502    0.268(31)   1058.     0.2738    0.2738     1922
   1.86575    0.255(30)   1111.     0.2738    0.2738     1923
   1.86649    0.298(32)   948.      0.2737    0.2737     1924
   1.86722    0.295(32)   955.      0.2737    0.2737     1925
   1.86795    0.246(30)   1142.     0.2737    0.2737     1926
   1.86868    0.279(32)   1006.     0.2737    0.2737     1927
   1.86942    0.258(30)   1084.     0.2737    0.2737     1928
   1.87015    0.244(30)   1142.     0.2737    0.2737     1929
   1.87088    0.266(31)   1044.     0.2737    0.2737     1930
   1.87161    0.296(33)   937.      0.2736    0.2736     1931
   1.87235    0.250(30)   1108.     0.2736    0.2736     1932
   1.87308    0.279(32)   988.      0.2736    0.2736     1933
_pd_proc_number_of_points              1933

loop_
      _refln_index_h
      _refln_index_k
      _refln_index_l
      _pd_refln_phase_id
      _refln_observed_status
      _refln_F_squared_meas
      _refln_F_squared_calc
      _refln_phase_calc
      _refln_d_spacing
      _gsas_i100_meas
   2   0   0  1 o  16.505  16.060   0.00    1.76172 100.00
   3   1   1  2 o   4.854   5.087  180.00   1.63708  23.87
   2   2   2  2 o   0.000   0.000   0.00    1.56738   0.00
   4   0   0  2 o  10.301   9.812  180.00   1.35739   6.08
   2   2   0  1 o  15.566  15.195   0.00    1.24572  48.55
   3   3   1  2 o   4.948   4.801   0.00    1.24563   8.34
   4   2   2  2 o   9.626   9.260   0.00    1.10831  10.25
   3   1   1  1 o  14.502  14.576   0.00    1.06236  48.34
   3   3   3  2 o   5.035   4.531   0.00    1.04492   1.42
   5   1   1  2 o   5.035   4.531   0.00    1.04492   4.25
   2   2   2  1 o  14.310  14.376   0.00    1.01713  13.40
   4   4   0  2 o   6.413   8.739   0.00    0.95982   1.94
   5   3   1  2 o   3.469   4.276   0.00    0.91777   3.51
   4   4   2  2 o   0.000   0.000  180.00   0.90493   0.00
   4   0   0  1 o  11.889  13.601   0.00    0.88086   4.73
   6   2   0  2 o   7.467   8.248   0.00    0.85849   2.90
   5   3   3  2 o   4.561   4.035  180.00   0.82800   1.54
   6   2   2  2 o   0.000   0.000  180.00   0.81854   0.00
   3   3   1  1 o  13.161  13.048   0.00    0.80833  14.92
   4   2   0  1 o  13.187  12.869   0.00    0.78786  13.51
   4   4   4  2 o   8.605   7.784  180.00   0.78369   0.78
   7   1   1  2 o   4.230   3.808   0.00    0.76029   1.02
   5   5   1  2 o   4.230   3.808  180.00   0.76029   1.02
   6   4   2  2 o   7.902   7.346  180.00   0.72556   3.16
   4   2   2  1 o  12.553  12.175   0.00    0.71922   8.96
   5   5   3  2 o   4.123   3.594  180.00   0.70687   0.74
   7   3   1  2 o   4.123   3.594  180.00   0.70687   1.49
   8   0   0  2 o   6.871   6.932   0.00    0.67870   0.26
   5   1   1  1 o  11.586  11.680   0.00    0.67809   6.55
   3   3   3  1 o  11.586  11.680   0.00    0.67809   2.18
   7   3   3  2 o   2.673   3.392  180.00   0.66333   0.37
   6   4   4  2 o   0.000   0.000   0.00    0.65843   0.00
   8   2   2  2 o   4.805   6.542  180.00   0.63988   0.58
   6   6   0  2 o   4.805   6.542  180.00   0.63988   0.29
   7   5   1  2 o   2.783   3.201  180.00   0.62695   0.62
   5   5   5  2 o   2.783   3.201   0.00    0.62695   0.10
   4   4   0  1 o  10.812  10.899   0.00    0.62286   2.18
   6   6   2  2 o   0.000   0.000   0.00    0.62281   0.00
   8   4   0  2 o   7.883   6.174  180.00   0.60704   0.78
   7   5   3  2 o   3.033   3.021   0.00    0.59597   0.56
   9   1   1  2 o   3.033   3.021  180.00   0.59597   0.28
   5   3   1  1 o  10.538  10.455   0.00    0.59557   7.13
   8   4   2  2 o   0.000   0.000   0.00    0.59241   0.00
   4   4   2  1 o  10.868  10.311   0.00    0.58724   3.48
   6   0   0  1 o  10.868  10.312   0.00    0.58724   0.87
   6   6   4  2 o   7.512   5.827   0.00    0.57879   0.61
   9   3   1  2 o   3.446   2.851  180.00   0.56917   0.53
   6   2   0  1 o   9.222   9.756   0.00    0.55710   2.39
   8   4   4  2 o   5.846   5.499   0.00    0.55415   0.40
   7   5   5  2 o   2.885   2.691   0.00    0.54569   0.19
   9   3   3  2 o   2.885   2.691   0.00    0.54569   0.19
   7   7   1  2 o   2.885   2.691   0.00    0.54569   0.19
   5   3   3  1 o   8.949   9.359   0.00    0.53732   2.01
   8   6   2  2 o   5.051   5.190   0.00    0.53241   0.59
  10   2   0  2 o   5.051   5.190  180.00   0.53241   0.30
   6   2   2  1 o   9.139   9.230   0.00    0.53118   1.96
   7   7   3  2 o   2.340   2.539   0.00    0.52490   0.13
   9   5   1  2 o   2.340   2.539   0.00    0.52490   0.26
  10   2   2  2 o   0.000   0.000   0.00    0.52246   0.00
   6   6   6  2 o   0.000   0.000   0.00    0.52246   0.00
   9   5   3  2 o   2.073   2.396   0.00    0.50631   0.20
   4   4   4  1 o   6.131   8.733   0.00    0.50856   0.37
   8   6   4  2 o   0.000   0.000  180.00   0.50412   0.00
  10   4   2  2 o   4.200   4.622   0.00    0.49565   0.37
   7   1   1  1 o   8.012   8.378   0.00    0.49338   1.28
   5   5   1  1 o   8.012   8.378   0.00    0.49338   1.28
  11   1   1  2 o   2.295   2.261  180.00   0.48957   0.10
   7   7   5  2 o   2.295   2.261  180.00   0.48957   0.10
   6   4   0  1 o   8.872   8.263   0.00    0.48861   1.37
   8   8   0  2 o   6.891   4.362   0.00    0.47991   0.13
   9   7   1  2 o   2.182   2.134   0.00    0.47438   0.16
   9   5   5  2 o   2.182   2.134  180.00   0.47438   0.08
  11   3   1  2 o   2.182   2.134   0.00    0.47438   0.16
  10   4   4  2 o   0.000   0.000  180.00   0.47258   0.00
   8   8   2  2 o   0.000   0.000  180.00   0.47258   0.00
   6   4   2  1 o   8.182   7.817   0.00    0.47084   2.18
   8   6   6  2 o   4.821   4.117  180.00   0.46558   0.17
  10   6   0  2 o   4.821   4.117   0.00    0.46558   0.17
   9   7   3  2 o   1.948   2.014  180.00   0.46053   0.13
  11   3   3  2 o   1.948   2.014   0.00    0.46053   0.06
  10   6   2  2 o   0.000   0.000   0.00    0.45888   0.00
   7   3   1  1 o   7.261   7.499   0.00    0.45871   1.74
   5   5   3  1 o   7.261   7.499   0.00    0.45871   0.87
_reflns_number_observed                83
_reflns_limit_h_min                    1
_reflns_limit_h_max                    12
_reflns_limit_k_min                    0
_reflns_limit_k_max                    8
_reflns_limit_l_min                    0
_reflns_limit_l_max                    7
_reflns_d_resolution_high              0.459
_reflns_d_resolution_low               1.762
#--eof--eof--eof--eof--eof--eof--eof--eof--eof--eof--eof--eof--eof--eof--eof--#
