data_d6_MAPbI3_300K
_chemical_name_common           'd6-methylammonium lead iodide'
_chemical_formula_sum            'C H0.378 D5.622 I3 N Pb'
_chemical_formula_moiety         'I3 Pb, (C H0.19 D2.81), (H0.19 D2.81 N)'
_chemical_formula_weight         625.9
_exptl_crystal_colour            black
_exptl_crystal_description       powder
_publ_requested_journal          'Nature Communications'
_publ_section_title
; Structures and Phase Transitions of the Organic-Inorganic Hybrid 
 Perovskite Methyl Ammonium Lead Iodide
;
_publ_contact_author             'Pamela Whitfield'
_publ_contact_author_email       whitfieldps@ornl.gov
loop_
_publ_author_name        
'Whitfield, P.S.'
'Herron, N'
'Giuse, N'
'Page, K'
'Cheng, Y.Q.'
'Milas, I'
'Crawford, M.K.'
_diffrn_ambient_temperature      300
_cell_measurement_temperature    300
_pd_spec_mounting                '8mm diameter vanadium can'
_pd_spec_mount_mode              transmission
_pd_spec_shape                   cylinder
_cell_measurement_reflns_used    293  
_diffrn_source                   'spallation source'
_diffrn_radiation_type           neutron
_diffrn_detector                 '6Li scintillation wavelength-shifting fibre'
_diffrn_measurement_device_type  'time-of-flight neutron powder diffractometer'
_pd_instr_location               'POWGEN diffractometer, SNS, ORNL (USA)'
_pd_meas_scan_method             tof
_pd_instr_dist_src/spec          60000
_pd_instr_dist_spec/detc         3000 #distance for 90deg detectors
# detector distances increase from 2.5 metres at backscattering to 
#  4.5 metres at forward scattering
_pd_meas_2theta_fixed            90 #data from all detectors focussed at 90deg 
_diffrn_measurement_method       'neutron time-event mode'
loop_
_diffrn_radiation_wavelength     
1.066
2.665
# 1 Angstrom bandwith with centre wavelengths of 1.066 and 2.665 Angstrom
loop_
_atom_type_symbol
_atom_type_scat_length_neutron
_atom_type_scat_source
C 0.6646 International_Tables_Vol_C
N 0.9360 International_Tables_Vol_C
Pb 0.9405 International_Tables_Vol_C
I 0.528 International_Tables_Vol_C
H -0.3739 International_Tables_Vol_C
D 0.6671 International_Tables_Vol_C
_diffrn_reflns_number            293
_reflns_number_total             293
_reflns_number_gt                ?
_reflns_threshold_expression     ?
_diffrn_reflns_theta_max         ?
_diffrn_reflns_limit_h_min       0
_diffrn_reflns_limit_h_max       12
_diffrn_reflns_limit_k_min       0
_diffrn_reflns_limit_k_max       12
_diffrn_reflns_limit_l_min       0
_diffrn_reflns_limit_l_max       17
_diffrn_standards_number         ?
_diffrn_standards_interval_count ?
_diffrn_standards_interval_time  ?
_diffrn_standards_decay_%        ?
_pd_proc_ls_special_details      
; co-refinement of 2 datasets with centre wavelengths 1.066 and 2.665A
  methylammonium modelled via a z-matrix. Bond lengths and C-N
  torsions refined. 8-fold disorder as MA also disordered end-to-end 
  methylammonium ADPs restrained via a TLS restraint
  Pb occupancy and H/D ratio fixed at value from 10 K refinement
  Pb occupancy >1 presence of radiogenic Pb isotopes 
;
_computing_structure_solution    'TOPAS'
_computing_data_collection       'SNS pyDAS'
_computing_cell_refinement       'TOPAS'
_computing_data_reduction        'Mantid'
_pd_proc_ls_profile_function     'back-to-back exponentials with pseudo-Voigt'
_pd_proc_ls_background_function  'Chebychev polynomial with sinQ/Q function'
_refine_ls_structure_factor_coef Inet
_refine_ls_matrix_type           full
_refine_ls_weighting_scheme      'sigma'
_refine_ls_weighting_details
'w = 1/sigma\^2'
_refine_diff_density_max         ?
_refine_diff_density_min         ?
_refine_ls_number_reflns         293
_pd_proc_ls_prof_wR_factor       0.0307
_refine_ls_wR_factor_ref         0.0307
_refine_ls_R_factor_gt           ?
_refine_ls_goodness_of_fit_all   1.90
_refine_ls_goodness_of_fit_ref   1.90
_refine_ls_hydrogen_treatment    refall
_refine_ls_number_parameters     66
_refine_ls_shift/su_max          1.89972
_refine_ls_number_restraints     1
_restr_U_rigid_details           'TLS restraint for methylammonium'
_refine_ls_number_constraints    3
loop_
_atom_site_constraints
'Pb occupancy fixed to value from 10K refinement'
'D/H ratios fixed to value from 10K refinement'
'50:50 C:N disorder'           
_cell_length_a  8.86580(7)
_cell_length_b  8.86580(7)
_cell_length_c  12.65821(14)
_cell_angle_alpha 90
_cell_angle_beta  90
_cell_angle_gamma 90
_cell_volume 994.965(19)
_space_group_crystal_system      tetragonal
_symmetry_space_group_name_H-M  'I 4/m c m'
_symmetry_space_group_name_Hall  '-I 4 2c'
_symmetry_Int_Tables_number      140
_cell_formula_units_Z            4
_exptl_crystal_density_diffrn    4.182 
_exptl_absorpt_coefficient_mu    0
_exptl_absorpt_correction_type   cylinder
_exptl_absorpt_process_details  
'Lobanov, 6th EPDIC, Abstract.P12-16, Aug.22-25, 1998'
loop_
_symmetry_equiv_pos_as_xyz
	 'x, y, z '
	 '-x, -y, z '
	 '-x, y, -z+1/2 '
	 '-x, y, z+1/2 '
	 '-y, -x, -z+1/2 '
	 '-y, -x, z+1/2 '
	 '-y, x, -z '
	 '-y, x, z '
	 'y, -x, -z '
	 'y, -x, z '
	 'y, x, -z+1/2 '
	 'y, x, z+1/2 '
	 'x, -y, -z+1/2 '
	 'x, -y, z+1/2 '
	 'x, y, -z '
	 '-x, -y, -z '
	 'x+1/2, y+1/2, z+1/2 '
	 '-x+1/2, -y+1/2, z+1/2 '
	 '-x+1/2, y+1/2, -z '
	 '-x+1/2, y+1/2, z '
	 '-y+1/2, -x+1/2, -z '
	 '-y+1/2, -x+1/2, z '
	 '-y+1/2, x+1/2, -z+1/2 '
	 '-y+1/2, x+1/2, z+1/2 '
	 'y+1/2, -x+1/2, -z+1/2 '
	 'y+1/2, -x+1/2, z+1/2 '
	 'y+1/2, x+1/2, -z '
	 'y+1/2, x+1/2, z '
	 'x+1/2, -y+1/2, -z '
	 'x+1/2, -y+1/2, z '
	 'x+1/2, y+1/2, -z+1/2 '
	 '-x+1/2, -y+1/2, -z+1/2 '
loop_
_atom_site_label
_atom_site_type_symbol
_atom_site_fract_x
_atom_site_fract_y
_atom_site_fract_z
_atom_site_occupancy
_atom_site_symmetry_multiplicity
_atom_site_adp_type
_atom_site_U_iso_or_equiv
Pb1 Pb 0 0 0 1.011   4 Biso 0
I2 I 0.2159(3) 0.2841(3) 0 1   8 Biso 0
I1 I 0 0 0.25 1   4 Biso 0
N1 N 0.5668(14) -0.0668(14) 0.2164(17) 0.125  16 Biso 0
N1 C 0.5668(14) -0.0668(14) 0.2164(17) 0.125  16 Biso 0
C2 N 0.4684(14) 0.0316(14) 0.2797(17) 0.125  16 Biso 0
C2 C 0.4684(14) 0.0316(14) 0.2797(17) 0.125  16 Biso 0
D1 D 0.382(2) 0.063(2) 0.237(2) 0.117125  32 Biso 0
D1 H 0.382(2) 0.063(2) 0.237(2) 0.007875  32 Biso 0
D2 D 0.433(3) -0.0233(18) 0.342(2) 0.117125  32 Biso 0
D2 H 0.433(3) -0.0233(18) 0.342(2) 0.007875  32 Biso 0
D3 D 0.5249(17) 0.121(2) 0.302(2) 0.117125  32 Biso 0
D3 H 0.5249(17) 0.121(2) 0.302(2) 0.007875  32 Biso 0
D4 D 0.661(2) -0.014(2) 0.200(3) 0.117125  32 Biso 0
D4 H 0.661(2) -0.014(2) 0.200(3) 0.007875  32 Biso 0
D5 D 0.589(3) -0.159(2) 0.256(2) 0.117125  32 Biso 0
D5 H 0.589(3) -0.159(2) 0.256(2) 0.007875  32 Biso 0
D6 D 0.516(2) -0.093(3) 0.150(2) 0.117125  32 Biso 0
D6 H 0.516(2) -0.093(3) 0.150(2) 0.007875  32 Biso 0
loop_
_atom_site_aniso_label
_atom_site_aniso_U_11
_atom_site_aniso_U_22
_atom_site_aniso_U_33
_atom_site_aniso_U_12
_atom_site_aniso_U_13
_atom_site_aniso_U_23
Pb1 0.0418(9) 0.0418(9) 0.0356(15) 0 0 0
I2 0.080(2) 0.080(2) 0.129(3) -0.061(3) 0 0
I1 0.119(3) 0.119(3) 0.020(3) 0 0 0
N1 0.082(14) 0.128(14) 0.064(9) 0.025(7) 0.008(9) 0.004(14)
N1 0.082(14) 0.128(14) 0.064(9) 0.025(7) 0.008(9) 0.004(14)
C2 0.082(14) 0.128(14) 0.064(9) 0.025(7) 0.008(9) 0.004(14)
C2 0.082(14) 0.128(14) 0.064(9) 0.025(7) 0.008(9) 0.004(14)
D1 0.072(15) 0.22(2) 0.15(3) 0.044(17) 0.026(12) 0.07(2)
D1 0.072(15) 0.22(2) 0.15(3) 0.044(17) 0.026(12) 0.07(2)
D2 0.11(2) 0.29(3) 0.076(10) 0.055(19) 0.043(14) 0.057(18)
D2 0.11(2) 0.29(3) 0.076(10) 0.055(19) 0.043(14) 0.057(18)
D3 0.29(3) 0.128(14) 0.17(2) 0.005(12) -0.05(2) -0.059(17)
D3 0.29(3) 0.128(14) 0.17(2) 0.005(12) -0.05(2) -0.059(17)
D4 0.056(14) 0.29(3) 0.14(2) 0.035(9) 0.035(13) 0.11(2)
D4 0.056(14) 0.29(3) 0.14(2) 0.035(9) 0.035(13) 0.11(2)
D5 0.16(2) 0.125(14) 0.18(3) 0.058(12) 0.01(2) 0.027(17)
D5 0.16(2) 0.125(14) 0.18(3) 0.058(12) 0.01(2) 0.027(17)
D6 0.25(3) 0.22(2) 0.080(10) 0.03(2) -0.027(14) -0.060(17)
D6 0.25(3) 0.22(2) 0.080(10) 0.03(2) -0.027(14) -0.060(17)
loop_
	_geom_bond_atom_site_label_1
	_geom_bond_atom_site_label_2
	_geom_bond_distance
	_geom_bond_site_symmetry_1
	_geom_bond_site_symmetry_2
	Pb1       I2        3.1635(4) 1_555   1_555
	Pb1       I1        3.16455 1_555   1_555
	I2        D6        3.004(19) 1_555  20_555
	I1        D4        3.07(2) 1_555  13_455
	I1        D5        3.13(2) 1_555  30_445
	N1        D5        0.979(8) 1_555   1_555
	N1        D6        0.979(8) 1_555   1_555
	N1        D4        0.979(8) 1_555   1_555
	N1        C2        1.471(11) 1_555   1_555
	C2        D2        0.979(8) 1_555   1_555
	C2        D3        0.979(8) 1_555   1_555
	C2        D1        0.979(8) 1_555   1_555
loop_
	_geom_angle_atom_site_label_1
	_geom_angle_atom_site_label_2
	_geom_angle_atom_site_label_3
	_geom_angle
	_geom_angle_site_symmetry_1
	_geom_angle_site_symmetry_2
	_geom_angle_site_symmetry_3
	I2        Pb1       I2         180.000   9_555 1_555   7_555
	I1        Pb1       I2         90.000    1_555 1_555   1_555
	I1        Pb1       I1         180.000   4_554 1_555   1_555
	Pb1       I2        Pb1        164.48(14)  1_555 1_555  19_555
	D6        N1        D5         109.4(3)  1_555 1_555   1_555
	D4        N1        D6         109.4(3)  1_555 1_555   1_555
	D4        N1        D5         109.4(3)  1_555 1_555   1_555
	C2        N1        D4         109.5(3)  1_555 1_555   1_555
	C2        N1        D6         109.5(3)  1_555 1_555   1_555
	C2        N1        D5         109.5(3)  1_555 1_555   1_555
	D3        C2        D2         109.4(3)  1_555 1_555   1_555
	D1        C2        D3         109.4(3)  1_555 1_555   1_555
	D1        C2        D2         109.4(3)  1_555 1_555   1_555
	I1        D4        N1         152.3(7)  1_655 1_555   2_655
	I1        D4        N1         144(2)  1_655 1_555   1_555
	I1        D5        N1         158.2(10) 20_545 1_555  13_555
	I2        D6        N1         161(2)  9_555 1_555   1_555

data_d6_MAPbI3_300K_p_01
_diffrn_radiation_wavelength     1.066
# 1 Angstrom bandwith with centre wavelengths of 1.066 Angstrom
loop_
_pd_proc_point_id
_pd_meas_time_of_flight
_pd_proc_intensity_total
_pd_calc_intensity_total
_pd_proc_ls_weight
         1 16000.22847    70.00111    72.11232     2.93703
         2 16013.02865    70.21633    71.36370     2.94703
         3 16025.83907    70.50092    71.35772     2.96064
         4 16038.65975    70.85074    72.21985     2.94130
         5 16051.49067    71.07059    72.09178     2.95561
         6 16064.33187    71.13564    71.63674     2.90132
         7 16077.18333    71.24409    71.26699     2.93673
         8 16090.04508    71.39149    71.82609     2.93846
         9 16102.91711    71.51380    71.86826     2.92067
        10 16115.79945    71.71093    71.74074     2.94697
        11 16128.69209    72.08692    72.01684     2.89365
        12 16141.59504    72.61391    73.31069     2.91288
        13 16154.50832    73.10805    73.35071     2.89044
        14 16167.43192    73.27556    73.83613     2.88538
        15 16180.36587    73.13718    73.73434     2.92310
        16 16193.31016    72.99663    73.05595     2.91725
        17 16206.26481    72.99048    73.47451     2.94041
        18 16219.22982    72.99417    73.57251     2.95635
        19 16232.20521    72.97724    72.28001     2.94462
        20 16245.19097    73.15564    72.61899     2.93804
        21 16258.18712    73.62418    72.11672     2.96245
        22 16271.19367    73.97033    71.94865     2.93690
        23 16284.21063    73.81374    74.31776     2.91955
        24 16297.23800    73.61448    72.00331     3.00021
        25 16310.27579    73.72855    73.71647     2.93248
        26 16323.32401    73.90088    74.38614     2.92399
        27 16336.38267    73.90159    72.75564     2.93317
        28 16349.45177    73.94102    72.85557     2.93685
        29 16362.53133    74.00542    73.04073     2.95127
        30 16375.62136    74.00565    72.94801     2.98500
        31 16388.72186    74.05753    72.58554     2.94649
        32 16401.83283    74.16641    72.72006     2.95913
        33 16414.95430    74.17831    73.15108     2.94996
        34 16428.08626    74.13121    73.19050     2.90179
        35 16441.22873    74.27297    73.81363     2.92231
        36 16454.38172    74.72945    74.95157     2.92557
        37 16467.54522    75.34272    75.25824     2.89313
        38 16480.71926    75.74851    74.83426     2.89653
        39 16493.90383    75.59954    75.72475     2.88109
        40 16507.09896    75.04605    75.07362     2.92516
        41 16520.30463    74.57483    74.03035     2.92344
        42 16533.52088    74.36522    74.40042     2.95964
        43 16546.74769    74.40388    73.67606     2.96406
        44 16559.98509    74.70312    73.37393     2.94867
        45 16573.23308    75.17188    75.14871     2.88678
        46 16586.49167    75.66942    75.10298     2.92888
        47 16599.76086    75.95467    75.81355     2.92919
        48 16613.04067    75.58974    76.38699     2.89792
        49 16626.33110    75.02239    74.31273     2.94370
        50 16639.63217    74.90734    74.31520     2.96741
        51 16652.94387    75.11104    73.87297     2.97121
        52 16666.26623    75.08330    73.88899     2.98452
        53 16679.59924    74.96956    74.46750     2.94640
        54 16692.94292    75.21202    73.58105     2.94504
        55 16706.29727    75.54940    75.14667     2.92367
        56 16719.66231    75.43657    74.47136     2.95218
        57 16733.03804    74.91440    72.71072     2.97790
        58 16746.42447    74.49454    74.08837     3.00343
        59 16759.82161    74.38248    74.08577     2.97411
        60 16773.22947    74.37911    73.21086     2.96692
        61 16786.64805    74.27035    74.14915     2.98399
        62 16800.07737    74.15665    72.10087     3.01062
        63 16813.51743    74.21662    73.66033     3.01227
        64 16826.96825    74.46140    72.13880     2.98898
        65 16840.42982    74.58961    74.01488     2.96668
        66 16853.90217    74.41179    73.40696     2.98256
        67 16867.38529    74.14844    73.99143     2.98053
        68 16880.87920    73.94618    73.16101     2.99399
        69 16894.38390    73.80748    73.24872     3.01259
        70 16907.89941    73.72411    73.06157     3.01562
        71 16921.42573    73.71029    73.94869     2.99210
        72 16934.96287    73.79827    73.24108     3.01599
        73 16948.51084    73.91641    73.80144     3.00319
        74 16962.06965    73.93556    74.34745     2.99346
        75 16975.63930    73.98864    74.68301     2.99316
        76 16989.21981    74.15832    75.35769     2.98354
        77 17002.81119    74.32943    74.72652     2.97735
        78 17016.41344    74.36391    76.34012     2.96602
        79 17030.02657    74.39133    75.38702     2.96596
        80 17043.65059    75.04362    76.40709     2.95235
        81 17057.28551    75.92942    78.39298     2.90625
        82 17070.93134    75.74001    78.82297     2.93812
        83 17084.58808    74.83990    75.25015     2.95345
        84 17098.25575    74.07310    75.07824     2.95694
        85 17111.93436    73.51627    75.36368     3.00096
        86 17125.62391    73.18325    73.45665     3.01614
        87 17139.32440    73.06315    75.41875     3.00923
        88 17153.03586    73.22848    74.30560     3.01662
        89 17166.75829    73.87792    75.35503     2.99242
        90 17180.49170    74.99990    74.69831     3.00878
        91 17194.23609    76.13230    76.31625     2.94893
        92 17207.99148    76.29318    77.48233     2.95708
        93 17221.75788    75.09048    76.56729     2.97061
        94 17235.53528    73.69422    75.20827     3.01391
        95 17249.32371    72.97671    75.92838     3.03118
        96 17263.12317    72.72436    74.12872     3.05234
        97 17276.93367    72.47141    74.13857     3.06216
        98 17290.75521    72.21882    73.70357     3.08274
        99 17304.58782    72.19080    74.20402     3.06513
       100 17318.43149    72.44365    74.56800     3.07292
       101 17332.28623    72.60427    74.58551     3.05703
       102 17346.15206    72.34197    74.03459     3.06850
       103 17360.02898    71.95866    73.87718     3.10486
       104 17373.91701    71.69792    74.06900     3.07151
       105 17387.81614    71.55188    72.70775     3.09548
       106 17401.72639    71.59755    73.40747     3.11586
       107 17415.64778    72.08859    74.46847     3.09372
       108 17429.58029    72.97022    75.35847     3.05153
       109 17443.52396    73.29394    74.69493     3.03668
       110 17457.47878    72.78265    74.65218     3.04311
       111 17471.44476    72.31030    74.00355     3.08592
       112 17485.42192    72.04959    74.24120     3.11444
       113 17499.41025    71.74353    73.52157     3.09556
       114 17513.40978    71.34116    72.00022     3.14087
       115 17527.42051    71.08907    71.83098     3.12978
       116 17541.44245    71.34637    73.36118     3.14588
       117 17555.47560    72.32953    72.96902     3.09507
       118 17569.51998    73.33963    74.73387     3.08267
       119 17583.57560    73.24404    74.28719     3.09184
       120 17597.64246    72.40239    72.84213     3.07570
       121 17611.72057    71.69343    72.71513     3.10692
       122 17625.80995    71.36076    71.75511     3.13765
       123 17639.91059    71.24853    72.34330     3.13190
       124 17654.02252    71.20423    70.59537     3.15074
       125 17668.14574    71.05196    72.34807     3.14250
       126 17682.28026    70.83483    71.25111     3.17138
       127 17696.42608    70.91143    70.85370     3.17006
       128 17710.58322    71.40159    70.67836     3.18883
       129 17724.75169    72.20891    69.96250     3.21965
       130 17738.93149    72.45187    72.06674     3.18608
       131 17753.12264    71.50399    70.94812     3.22503
       132 17767.32513    70.34608    69.12543     3.23161
       133 17781.53899    69.66574    68.14681     3.24365
       134 17795.76423    69.35108    67.91711     3.29330
       135 17810.00084    69.19010    67.92330     3.24117
       136 17824.24884    69.08816    67.87626     3.26876
       137 17838.50824    69.02532    67.30198     3.28174
       138 17852.77904    69.03607    67.85543     3.25969
       139 17867.06127    69.15824    67.75802     3.30006
       140 17881.35492    69.26662    66.91660     3.28180
       141 17895.66000    69.17565    67.36685     3.28344
       142 17909.97653    68.96761    66.48443     3.25868
       143 17924.30451    68.80750    67.11527     3.31552
       144 17938.64395    68.72179    66.57340     3.33986
       145 17952.99487    68.68759    66.50377     3.31486
       146 17967.35726    68.76715    67.81989     3.28905
       147 17981.73115    69.03804    67.67822     3.30682
       148 17996.11653    69.31206    69.19236     3.24788
       149 18010.51343    69.23633    68.77144     3.25109
       150 18024.92184    68.93036    67.08968     3.28332
       151 18039.34178    68.80001    66.92344     3.27404
       152 18053.77325    68.93815    66.91984     3.27662
       153 18068.21627    69.11233    67.22437     3.31102
       154 18082.67084    69.21727    67.95842     3.26770
       155 18097.13698    69.08872    66.11206     3.25455
       156 18111.61469    68.79914    66.52362     3.29200
       157 18126.10398    68.68510    67.18156     3.26471
       158 18140.60486    68.75301    67.07026     3.28025
       159 18155.11735    68.97795    66.69207     3.27251
       160 18169.64144    69.38432    67.36625     3.18164
       161 18184.17715    69.63690    69.01743     3.19720
       162 18198.72449    69.51825    68.67869     3.19708
       163 18213.28347    69.46109    67.29770     3.19966
       164 18227.85410    69.76771    68.86464     3.16890
       165 18242.43638    69.82916    68.53388     3.11936
       166 18257.03033    69.12074    66.53978     3.16044
       167 18271.63596    68.28048    65.52788     3.11203
       168 18286.25327    67.78781    66.10064     3.12550
       169 18300.88227    67.56389    66.09708     3.15091
       170 18315.52297    67.45307    65.80096     3.18561
       171 18330.17539    67.38696    65.70237     3.15720
       172 18344.83953    67.34205    66.48575     3.16750
       173 18359.51540    67.30911    66.92358     3.13837
       174 18374.20302    67.28473    66.13555     3.15198
       175 18388.90238    67.27194    67.14704     3.13603
       176 18403.61350    67.29602    66.14546     3.15855
       177 18418.33639    67.43302    66.78706     3.08873
       178 18433.07106    67.73611    67.40446     3.09429
       179 18447.81752    68.04793    67.24055     3.09909
       180 18462.57577    68.16425    68.76278     3.05330
       181 18477.34583    68.06263    68.38108     3.04414
       182 18492.12771    67.89421    67.84773     3.07067
       183 18506.92141    67.84125    68.47090     3.02052
       184 18521.72695    67.76200    68.86366     3.00353
       185 18536.54433    67.53402    67.24912     3.01989
       186 18551.37357    67.34336    67.58565     2.98357
       187 18566.21466    67.35216    66.81541     3.02330
       188 18581.06764    67.53011    68.70915     2.96833
       189 18595.93249    67.62992    68.39958     2.98490
       190 18610.80924    67.50157    67.78792     2.94386
       191 18625.69788    67.29553    68.20613     2.96519
       192 18640.59844    67.15377    67.93777     2.94265
       193 18655.51092    67.08292    67.70920     2.95263
       194 18670.43533    67.05236    66.60727     2.94924
       195 18685.37168    67.04233    69.03907     2.92660
       196 18700.31998    67.04386    67.57926     2.94385
       197 18715.28023    67.05572    67.41726     2.90068
       198 18730.25246    67.08879    68.17387     2.91149
       199 18745.23666    67.17608    67.31380     2.93690
       200 18760.23285    67.35491    68.49914     2.88506
       201 18775.24103    67.61759    68.77248     2.86538
       202 18790.26123    68.01363    69.58432     2.84439
       203 18805.29343    68.54400    70.66041     2.80867
       204 18820.33767    68.79314    70.88779     2.82022
       205 18835.39394    68.61733    69.75961     2.82078
       206 18850.46226    68.25408    70.06387     2.81138
       207 18865.54262    67.88940    68.89821     2.84281
       208 18880.63506    67.65595    68.56580     2.84271
       209 18895.73957    67.64681    69.37744     2.82343
       210 18910.85616    67.86714    68.99996     2.83099
       211 18925.98484    68.16258    70.09948     2.80515
       212 18941.12563    68.39320    70.35183     2.81045
       213 18956.27853    68.60612    69.27916     2.76477
       214 18971.44355    68.93622    69.06218     2.79888
       215 18986.62071    68.99886    69.42124     2.74851
       216 19001.81001    68.62759    69.11644     2.77917
       217 19017.01145    68.49269    69.57867     2.74458
       218 19032.22506    68.98023    69.63989     2.75733
       219 19047.45084    69.39024    70.94319     2.72113
       220 19062.68880    68.99423    70.82744     2.73381
       221 19077.93896    68.30106    68.75884     2.77525
       222 19093.20131    67.87061    67.78718     2.77045
       223 19108.47587    67.72427    69.12179     2.78599
       224 19123.76265    67.76189    69.05425     2.76251
       225 19139.06166    67.92867    68.56561     2.75689
       226 19154.37291    68.12316    67.07349     2.76349
       227 19169.69641    68.21140    68.12245     2.73789
       228 19185.03216    68.14819    68.31295     2.76734
       229 19200.38019    68.01794    67.65650     2.77552
       230 19215.74049    67.92696    66.40171     2.76081
       231 19231.11309    67.91727    68.30698     2.74778
       232 19246.49798    68.01854    67.76620     2.73229
       233 19261.89517    68.35027    67.89114     2.74880
       234 19277.30469    69.02732    70.58882     2.66893
       235 19292.72653    69.75876    69.87891     2.67226
       236 19308.16072    69.93084    70.42834     2.63993
       237 19323.60724    69.47137    68.22671     2.65500
       238 19339.06613    68.98340    68.43341     2.67079
       239 19354.53738    68.82731    68.37101     2.67898
       240 19370.02101    68.90649    68.58689     2.68361
       241 19385.51703    69.12759    68.66309     2.65362
       242 19401.02544    69.29828    69.64994     2.62475
       243 19416.54626    69.22405    68.78416     2.58179
       244 19432.07950    69.23574    68.35517     2.61389
       245 19447.62516    69.61241    69.54380     2.62413
       246 19463.18326    70.01337    70.03218     2.60029
       247 19478.75381    70.24803    69.18440     2.59353
       248 19494.33681    70.89873    71.02315     2.59733
       249 19509.93228    71.77732    72.98221     2.47959
       250 19525.54023    71.71720    73.24013     2.47832
       251 19541.16066    70.96135    69.60895     2.55989
       252 19556.79359    70.85241    69.35343     2.54971
       253 19572.43902    71.70666    70.97055     2.49638
       254 19588.09698    72.27897    72.92473     2.44484
       255 19603.76745    71.76958    72.42209     2.45109
       256 19619.45047    71.03474    71.62284     2.48317
       257 19635.14603    70.58161    69.60391     2.46881
       258 19650.85414    70.20688    70.61235     2.44518
       259 19666.57483    69.99497    69.68197     2.47441
       260 19682.30809    70.18438    70.45344     2.45522
       261 19698.05393    70.54741    69.95332     2.40315
       262 19713.81238    70.53927    70.56238     2.41590
       263 19729.58343    70.26637    68.61749     2.41080
       264 19745.36709    70.30424    69.62909     2.41187
       265 19761.16339    70.81190    70.06772     2.37231
       266 19776.97232    71.18488    71.00515     2.34372
       267 19792.79390    70.95517    70.88365     2.37433
       268 19808.62813    70.65222    70.67834     2.33266
       269 19824.47503    70.77473    71.35147     2.33999
       270 19840.33461    71.01209    70.22244     2.35954
       271 19856.20688    70.89479    71.48811     2.33994
       272 19872.09185    70.65292    71.54293     2.30823
       273 19887.98952    70.57811    70.94789     2.30367
       274 19903.89991    70.64335    71.05133     2.26788
       275 19919.82303    70.77515    70.56621     2.27632
       276 19935.75889    70.81254    72.01959     2.26510
       277 19951.70750    70.69758    71.40764     2.27173
       278 19967.66886    70.58887    70.59678     2.24433
       279 19983.64300    70.64979    70.48189     2.24733
       280 19999.62991    70.97612    71.19794     2.24384
       281 20015.62962    71.44125    72.95803     2.21833
       282 20031.64212    71.75338    74.27963     2.18306
       283 20047.66743    71.97605    73.60955     2.15712
       284 20063.70557    72.39798    72.85616     2.14677
       285 20079.75653    72.93963    75.44026     2.11347
       286 20095.82034    73.19543    75.34769     2.11260
       287 20111.89699    72.93598    74.87802     2.08810
       288 20127.98651    72.45816    74.17363     2.14496
       289 20144.08890    71.94349    74.70888     2.11089
       290 20160.20417    71.52380    73.16158     2.12391
       291 20176.33234    71.33198    72.87066     2.11484
       292 20192.47340    71.40979    71.39634     2.13640
       293 20208.62738    71.82256    73.53385     2.09729
       294 20224.79428    72.72527    74.01293     2.05152
       295 20240.97412    74.14723    76.10153     2.00084
       296 20257.16690    75.39447    76.26513     2.00862
       297 20273.37263    75.51783    76.79245     1.96792
       298 20289.59133    74.59603    75.83473     1.99203
       299 20305.82300    73.50768    74.93340     1.99881
       300 20322.06766    72.83768    74.72038     2.02680
       301 20338.32531    72.87659    73.97541     2.02660
       302 20354.59597    74.00403    73.46021     2.00644
       303 20370.87965    75.75512    77.17359     1.97605
       304 20387.17635    76.23039    76.47478     1.94818
       305 20403.48610    75.03574    75.50896     1.96919
       306 20419.80888    73.70752    74.96377     1.95277
       307 20436.14473    72.94089    73.86109     1.96773
       308 20452.49365    72.53579    74.14566     1.94922
       309 20468.85564    72.37653    74.07580     1.97362
       310 20485.23073    72.50567    73.68125     1.95405
       311 20501.61891    72.82219    73.84654     1.96115
       312 20518.02021    72.95567    74.00604     1.96484
       313 20534.43462    72.75645    73.16690     1.96696
       314 20550.86217    72.48518    73.45650     1.94918
       315 20567.30286    72.33106    73.48437     1.91518
       316 20583.75670    72.28499    72.45348     1.92782
       317 20600.22371    72.29285    72.40090     1.95401
       318 20616.70389    72.32349    72.08791     1.95834
       319 20633.19725    72.36399    73.61233     1.95430
       320 20649.70381    72.41132    71.79802     1.97153
       321 20666.22357    72.47113    73.49010     1.91846
       322 20682.75655    72.57304    72.12526     1.92350
       323 20699.30275    72.77729    72.12115     1.92028
       324 20715.86220    73.06713    73.46158     1.91705
       325 20732.43489    73.23438    72.76875     1.90718
       326 20749.02083    73.15562    72.72780     1.91139
       327 20765.62005    73.00224    72.14497     1.91576
       328 20782.23255    72.92831    71.22806     1.93565
       329 20798.85833    72.93600    71.80658     1.90535
       330 20815.49742    72.98033    71.41985     1.90528
       331 20832.14982    73.06533    70.81600     1.91162
       332 20848.81554    73.28926    72.45663     1.88516
       333 20865.49459    73.84068    72.70950     1.90206
       334 20882.18699    74.79656    74.92154     1.85707
       335 20898.89274    75.94828    75.36006     1.82869
       336 20915.61185    76.93843    74.94173     1.84661
       337 20932.34434    76.97597    75.85391     1.82056
       338 20949.09021    75.89708    72.89653     1.83721
       339 20965.84949    74.72166    72.32700     1.86500
       340 20982.62217    74.11673    72.46005     1.87152
       341 20999.40826    74.17888    71.48448     1.83853
       342 21016.20779    74.98090    71.79882     1.86429
       343 21033.02076    76.18719    75.37936     1.78409
       344 21049.84717    76.66836    75.34013     1.76740
       345 21066.68705    76.12318    74.52401     1.79011
       346 21083.54040    75.74078    72.66328     1.80837
       347 21100.40723    76.49610    72.44763     1.80544
       348 21117.28756    78.05129    76.11044     1.74968
       349 21134.18139    79.16936    75.95859     1.72072
       350 21151.08873    79.30166    75.97979     1.73918
       351 21168.00961    78.93446    77.06899     1.73043
       352 21184.94401    78.50182    76.60161     1.74020
       353 21201.89197    78.00880    75.66883     1.74049
       354 21218.85348    77.64712    74.98173     1.74994
       355 21235.82856    77.35954    73.60738     1.75264
       356 21252.81723    77.13635    73.04249     1.73686
       357 21269.81948    77.20439    73.16146     1.76333
       358 21286.83534    76.95738    74.37131     1.72528
       359 21303.86481    76.08723    74.11493     1.74772
       360 21320.90790    75.33968    72.99633     1.72704
       361 21337.96462    75.44563    71.09070     1.73819
       362 21355.03499    76.55329    73.40844     1.70682
       363 21372.11902    77.68362    75.61315     1.69609
       364 21389.21672    77.44250    75.22905     1.67286
       365 21406.32809    76.18591    73.14284     1.69402
       366 21423.45315    75.09388    71.02636     1.72530
       367 21440.59192    74.53571    70.86262     1.70907
       368 21457.74439    74.34690    73.48249     1.66508
       369 21474.91059    74.43724    72.48104     1.69837
       370 21492.09051    74.90791    71.50889     1.68887
       371 21509.28419    75.69704    75.40154     1.64779
       372 21526.49161    76.15701    76.01253     1.60457
       373 21543.71281    75.80442    74.49248     1.60662
       374 21560.94778    75.11693    73.90599     1.62060
       375 21578.19654    74.64637    73.49091     1.61418
       376 21595.45909    74.52372    72.23480     1.58746
       377 21612.73546    74.77697    73.22472     1.59133
       378 21630.02565    75.38190    73.86312     1.55508
       379 21647.32967    75.93341    76.51382     1.51297
       380 21664.64753    76.01662    75.36383     1.54369
       381 21681.97925    75.88090    76.10409     1.55480
       382 21699.32483    75.82573    75.32806     1.55163
       383 21716.68429    75.74504    75.26981     1.55579
       384 21734.05764    75.46348    73.16417     1.55767
       385 21751.44489    75.07339    74.55669     1.54058
       386 21768.84604    74.77682    72.35746     1.54232
       387 21786.26112    74.63330    75.29286     1.52810
       388 21803.69013    74.61316    74.61155     1.52590
       389 21821.13308    74.66029    75.68725     1.50573
       390 21838.58999    74.78920    75.39609     1.51834
       391 21856.06086    74.98181    76.39907     1.49481
       392 21873.54571    75.07036    76.84939     1.48081
       393 21891.04454    75.14595    75.68576     1.49159
       394 21908.55738    75.60804    76.44702     1.45658
       395 21926.08423    76.49403    76.89474     1.45721
       396 21943.62509    77.19746    78.91932     1.42499
       397 21961.17999    77.41239    78.68039     1.42301
       398 21978.74894    77.32758    78.68810     1.39305
       399 21996.33194    76.79081    79.78872     1.40397
       400 22013.92900    75.94295    77.42956     1.42286
       401 22031.54015    75.28094    77.44747     1.41090
       402 22049.16538    75.01801    77.25987     1.42215
       403 22066.80471    75.22508    78.31615     1.40914
       404 22084.45815    76.37443    80.05699     1.36520
       405 22102.12572    79.37216    81.46742     1.33487
       406 22119.80742    84.00687    87.75259     1.26471
       407 22137.50327    87.35571    92.37809     1.22395
       408 22155.21327    86.87197    90.04066     1.23352
       409 22172.93744    84.46307    88.07473     1.26347
       410 22190.67579    83.17975    85.99911     1.26991
       411 22208.42833    82.54454    88.72791     1.24543
       412 22226.19507    80.84942    85.61902     1.27561
       413 22243.97603    78.92155    82.36769     1.33316
       414 22261.77121    78.43674    82.04004     1.28392
       415 22279.58063    80.47756    82.57730     1.30555
       416 22297.40429    84.27857    84.09109     1.26514
       417 22315.24222    85.97083    88.77061     1.24291
       418 22333.09441    83.51343    87.63087     1.22780
       419 22350.96088    79.91551    82.93753     1.28326
       420 22368.84165    78.17448    81.38305     1.28454
       421 22386.73673    78.69962    81.71089     1.27861
       422 22404.64612    80.07956    85.78758     1.24254
       423 22422.56983    80.31772    85.22814     1.22775
       424 22440.50789    78.77161    83.70280     1.24257
       425 22458.46030    76.72698    80.65396     1.29967
       426 22476.42706    75.31408    78.21984     1.30011
       427 22494.40820    74.61442    75.59816     1.32589
       428 22512.40373    74.33197    77.62128     1.30232
       429 22530.41365    74.32851    76.84069     1.33528
       430 22548.43799    74.75747    78.73665     1.29440
       431 22566.47674    75.84267    77.54163     1.34488
       432 22584.52992    77.09324    81.91300     1.27416
       433 22602.59754    77.25206    83.15440     1.26303
       434 22620.67962    76.20351    79.20347     1.29189
       435 22638.77616    75.01993    75.23671     1.32119
       436 22656.88718    74.29213    76.25390     1.32696
       437 22675.01269    73.94904    75.60957     1.32563
       438 22693.15270    73.79970    74.45922     1.32334
       439 22711.30723    73.75418    73.50757     1.32848
       440 22729.47627    73.82525    74.56925     1.33607
       441 22747.65985    74.06198    75.10034     1.32545
       442 22765.85798    74.39301    73.48572     1.35114
       443 22784.07067    74.56911    74.95794     1.32721
       444 22802.29792    74.43534    73.87550     1.34574
       445 22820.53976    74.13580    73.83754     1.33753
       446 22838.79619    73.90500    74.18985     1.33281
       447 22857.06723    73.81331    73.98808     1.35182
       448 22875.35288    73.78991    72.73109     1.31952
       449 22893.65317    73.78780    74.02724     1.34009
       450 22911.96809    73.90592    74.94394     1.33394
       451 22930.29766    74.49848    75.14890     1.31361
       452 22948.64190    76.32386    77.05188     1.28503
       453 22967.00082    79.81671    80.76252     1.23243
       454 22985.37442    83.29159    84.75165     1.19863
       455 23003.76272    83.83281    84.91923     1.18323
       456 23022.16573    81.34254    79.57557     1.23096
       457 23040.58346    78.13245    76.65585     1.28748
       458 23059.01593    75.77072    73.69485     1.31867
       459 23077.46314    74.48686    72.21813     1.32760
       460 23095.92511    73.98446    72.32521     1.31000
       461 23114.40185    73.90671    71.87760     1.30320
       462 23132.89337    73.97990    73.71760     1.29338
       463 23151.39968    74.23730    73.84371     1.30208
       464 23169.92080    74.81646    72.32495     1.28598
       465 23188.45674    75.30757    74.81982     1.25816
       466 23207.00751    75.14633    74.03504     1.26819
       467 23225.57311    74.75604    74.24427     1.26681
       468 23244.15357    75.28076    73.50424     1.26900
       469 23262.74889    77.58942    73.65139     1.26659
       470 23281.35909    80.75384    77.52030     1.22225
       471 23299.98418    81.75775    76.39109     1.24804
       472 23318.62417    79.68351    75.82436     1.21305
       473 23337.27907    76.98383    74.30642     1.23630
       474 23355.94889    75.43832    71.94473     1.25944
       475 23374.63365    74.81479    72.07290     1.23149
       476 23393.33336    74.39066    71.38577     1.25611
       477 23412.04802    73.95701    70.85870     1.25340
       478 23430.77766    73.66840    70.10134     1.24239
       479 23449.52228    73.98143    72.48665     1.24534
       480 23468.28190    75.60405    71.04330     1.24903
       481 23487.05653    78.56530    73.52913     1.20012
       482 23505.84617    80.80999    75.81965     1.17603
       483 23524.65085    80.08065    78.16277     1.16674
       484 23543.47057    77.48013    74.58285     1.19152
       485 23562.30535    75.49077    72.26343     1.20745
       486 23581.15519    75.18155    73.10564     1.21715
       487 23600.02011    76.08672    73.99129     1.18701
       488 23618.90013    76.85771    76.89398     1.14981
       489 23637.79525    76.62751    74.05788     1.17662
       490 23656.70549    76.05768    72.63038     1.17205
       491 23675.63085    76.65666    76.51807     1.14928
       492 23694.57136    78.69165    77.06239     1.12005
       493 23713.52701    79.94759    78.87185     1.11812
       494 23732.49783    78.56063    76.35662     1.10100
       495 23751.48383    75.89382    75.06788     1.16024
       496 23770.48502    73.85811    72.10045     1.18112
       497 23789.50141    72.93120    70.61629     1.18485
       498 23808.53301    72.81392    71.69337     1.14456
       499 23827.57984    73.02984    71.40703     1.15653
       500 23846.64190    73.02637    72.75895     1.12395
       501 23865.71921    72.67179    71.66567     1.13706
       502 23884.81179    72.35215    72.09260     1.13227
       503 23903.91964    72.49291    71.32667     1.13162
       504 23923.04277    73.28809    73.39336     1.12696
       505 23942.18121    74.33570    73.02664     1.12350
       506 23961.33495    74.66100    74.70447     1.10031
       507 23980.50402    74.03970    73.01615     1.10154
       508 23999.68842    73.30927    73.30673     1.08034
       509 24018.88817    73.09214    72.34005     1.10167
       510 24038.10328    73.22921    72.26079     1.11032
       511 24057.33377    73.14051    70.88681     1.09718
       512 24076.57963    72.71253    70.74930     1.11055
       513 24095.84090    72.30541    70.74918     1.10738
       514 24115.11757    72.02045    72.23128     1.07898
       515 24134.40967    71.73900    71.19164     1.07143
       516 24153.71719    71.47483    71.10955     1.06920
       517 24173.04017    71.28066    71.16428     1.05877
       518 24192.37860    71.15360    69.39636     1.07732
       519 24211.73250    71.09033    71.13015     1.06540
       520 24231.10189    71.13133    70.43415     1.05972
       521 24250.48677    71.38871    70.78982     1.05752
       522 24269.88716    71.94648    72.10319     1.04606
       523 24289.30307    72.63011    74.56893     1.03164
       524 24308.73451    73.17992    75.65735     1.02233
       525 24328.18150    73.84918    75.12667     1.01582
       526 24347.64404    74.77626    74.62458     0.99732
       527 24367.12216    75.30684    76.51676     0.99428
       528 24386.61586    75.18149    76.93178     0.98790
       529 24406.12515    74.62072    76.21113     0.97815
       530 24425.65005    73.68782    76.84229     0.96694
       531 24445.19057    72.75813    75.02230     0.99346
       532 24464.74672    72.09872    72.86960     0.98972
       533 24484.31852    71.58105    71.91278     1.01448
       534 24503.90597    71.12870    71.96785     1.01873
       535 24523.50910    70.80265    72.57809     0.99095
       536 24543.12791    70.62247    73.50896     0.98435
       537 24562.76241    70.54560    71.33643     1.00107
       538 24582.41262    70.54402    71.07952     0.99675
       539 24602.07855    70.66526    70.89695     0.97595
       540 24621.76021    71.08577    74.80707     0.98012
       541 24641.45762    72.02140    73.46348     0.95063
       542 24661.17079    73.30849    76.29423     0.94173
       543 24680.89972    74.20002    76.64881     0.94134
       544 24700.64444    74.33688    76.44037     0.93144
       545 24720.40496    74.75163    79.55963     0.91149
       546 24740.18128    76.80675    81.86123     0.89501
       547 24759.97343    79.84435    88.96193     0.85109
       548 24779.78141    81.01277    89.69523     0.82585
       549 24799.60523    79.11556    86.99137     0.86561
       550 24819.44491    76.21519    80.51038     0.88337
       551 24839.30047    74.03003    78.27684     0.88647
       552 24859.17191    72.52230    73.82095     0.92007
       553 24879.05925    71.40855    73.81726     0.92181
       554 24898.96250    70.68304    74.92607     0.92487
       555 24918.88167    70.29642    72.95657     0.94664
       556 24938.81677    70.12237    70.79810     0.94742
       557 24958.76782    70.06036    73.91692     0.92096
       558 24978.73484    70.06798    74.41220     0.90378
       559 24998.71783    70.17010    74.27622     0.91054
       560 25018.71680    70.39664    74.22636     0.91199
       561 25038.73177    70.62791    74.69472     0.88754
       562 25058.76276    70.67584    74.26238     0.90365
       563 25078.80977    70.68117    74.72953     0.91752
       564 25098.87282    71.21811    75.39539     0.87666
       565 25118.95192    73.03280    75.08846     0.87567
       566 25139.04708    76.16147    80.25847     0.86828
       567 25159.15832    78.74437    81.96067     0.86196
       568 25179.28564    78.40843    81.41086     0.84537
       569 25199.42907    75.66210    74.79661     0.88837
       570 25219.58861    72.80744    75.29902     0.89335
       571 25239.76428    71.02362    73.90504     0.88707
       572 25259.95610    70.16577    72.58434     0.88957
       573 25280.16406    69.78345    71.05060     0.90411
       574 25300.38819    69.59987    72.55042     0.92145
       575 25320.62850    69.49763    71.39085     0.90427
       576 25340.88501    69.43223    72.52807     0.90671
       577 25361.15771    69.38564    71.81082     0.90468
       578 25381.44664    69.35112    71.38034     0.90396
       579 25401.75180    69.32408    70.86221     0.91746
       580 25422.07320    69.30105    71.54117     0.91820
       581 25442.41086    69.28340    72.39878     0.89289
       582 25462.76479    69.27437    69.52756     0.92652
       583 25483.13500    69.29164    71.66878     0.89338
       584 25503.52151    69.36411    70.33278     0.91202
       585 25523.92432    69.49879    72.22182     0.90562
       586 25544.34346    69.62651    70.45984     0.91104
       587 25564.77894    69.65608    69.27453     0.90823
       588 25585.23076    69.66274    69.67449     0.92748
       589 25605.69894    69.84056    71.36878     0.89978
       590 25626.18350    70.20279    71.01288     0.90641
       591 25646.68445    70.42171    73.10719     0.91834
       592 25667.20180    70.22826    71.55152     0.90592
       593 25687.73556    69.81037    67.89851     0.92769
       594 25708.28575    69.46459    69.83930     0.94043
       595 25728.85238    69.27983    67.92082     0.92503
       596 25749.43546    69.20841    69.38423     0.94638
       597 25770.03501    69.20066    68.60008     0.92824
       598 25790.65103    69.25605    68.25112     0.91999
       599 25811.28356    69.46385    67.52307     0.93834
       600 25831.93258    70.06424    69.40027     0.90671
       601 25852.59813    71.34396    71.40014     0.89999
       602 25873.28021    73.11918    72.96107     0.86263
       603 25893.97883    74.32280    75.00984     0.86568
       604 25914.69401    73.92192    72.63038     0.87051
       605 25935.42577    72.35973    70.34640     0.88453
       606 25956.17411    70.83372    68.14591     0.90722
       607 25976.93905    69.92479    67.21434     0.91666
       608 25997.72060    69.59081    67.07245     0.91638
       609 26018.51878    69.71151    66.77660     0.88802
       610 26039.33359    70.22426    65.96633     0.92421
       611 26060.16506    70.83587    68.79542     0.87946
       612 26081.01319    70.98923    70.64215     0.87816
       613 26101.87800    70.54667    68.29580     0.89168
       614 26122.75950    69.93529    67.66379     0.89093
       615 26143.65771    69.51029    67.30568     0.89852
       616 26164.57264    69.31660    66.70998     0.87792
       617 26185.50430    69.26972    67.92379     0.90422
       618 26206.45270    69.31145    66.00102     0.88293
       619 26227.41786    69.45627    66.21468     0.87686
       620 26248.39980    69.84993    68.43986     0.88087
       621 26269.39852    70.89330    68.08984     0.85600
       622 26290.41403    73.22799    71.02256     0.84556
       623 26311.44637    77.06243    75.86601     0.79345
       624 26332.49552    81.03266    79.90297     0.77405
       625 26353.56152    82.68460    80.36167     0.75132
       626 26374.64437    81.75534    80.64211     0.75848
       627 26395.74408    80.45844    76.12180     0.78100
       628 26416.86068    80.71330    76.12122     0.79204
       629 26437.99417    81.96077    76.13964     0.79182
       630 26459.14456    81.50070    75.83854     0.76427
       631 26480.31188    78.65914    74.74991     0.77604
       632 26501.49613    75.34173    70.76495     0.81498
       633 26522.69733    72.96205    69.28570     0.81291
       634 26543.91548    71.53601    67.66477     0.81910
       635 26565.15062    70.75641    67.43552     0.83637
       636 26586.40274    70.39807    66.06506     0.82727
       637 26607.67186    70.14320    66.12398     0.81083
       638 26628.95800    69.79888    66.76415     0.82394
       639 26650.26116    69.44859    67.02798     0.81593
       640 26671.58137    69.20444    64.94042     0.82062
       641 26692.91864    69.07123    66.16655     0.81300
       642 26714.27297    69.00410    66.87808     0.79147
       643 26735.64439    68.96952    67.65719     0.80910
       644 26757.03290    68.94853    63.90909     0.82080
       645 26778.43853    68.93419    65.28322     0.80216
       646 26799.86128    68.92629    64.08201     0.81263
       647 26821.30117    68.92206    65.81567     0.81549
       648 26842.75821    68.91854    65.66702     0.79791
       649 26864.23242    68.91516    66.30406     0.79641
       650 26885.72380    68.91801    66.02180     0.79836
       651 26907.23238    68.92101    64.66156     0.77595
       652 26928.75817    68.92340    64.90552     0.79728
       653 26950.30118    68.92634    65.51877     0.78778
       654 26971.86142    68.93023    66.57919     0.78693
       655 26993.43891    68.93496    64.12028     0.78530
       656 27015.03366    68.94025    65.34088     0.76649
       657 27036.64568    68.94587    65.08118     0.77045
       658 27058.27500    68.95269    63.85624     0.78210
       659 27079.92162    68.96053    66.36435     0.74764
       660 27101.58556    68.96935    66.23961     0.75907
       661 27123.26683    68.97930    64.63721     0.77210
       662 27144.96544    68.99066    66.75278     0.73995
       663 27166.68141    69.00422    66.68591     0.75027
       664 27188.41476    69.02249    64.92019     0.74878
       665 27210.16549    69.05168    64.14311     0.75898
       666 27231.93362    69.10294    66.28321     0.71677
       667 27253.71917    69.17954    64.82127     0.73945
       668 27275.52214    69.29085    67.41646     0.71234
       669 27297.34256    69.48461    66.33815     0.72694
       670 27319.18044    69.81616    67.69094     0.71830
       671 27341.03578    70.19408    67.33188     0.71884
       672 27362.90861    70.37056    67.94837     0.70974
       673 27384.79894    70.26199    66.84352     0.71419
       674 27406.70677    70.00357    66.89291     0.70623
       675 27428.63214    69.76019    67.33989     0.71132
       676 27450.57505    69.61598    67.66988     0.71019
       677 27472.53551    69.56666    65.81517     0.70740
       678 27494.51353    69.57734    65.10752     0.70422
       679 27516.50914    69.60100    66.05826     0.71261
       680 27538.52235    69.62038    68.16174     0.69670
       681 27560.55317    69.66641    65.67632     0.70502
       682 27582.60161    69.73079    70.36199     0.69414
       683 27604.66769    69.75340    70.64129     0.68126
       684 27626.75143    69.72881    67.64038     0.66627
       685 27648.85283    69.72093    69.33413     0.68232
       686 27670.97191    69.79664    67.31632     0.67469
       687 27693.10869    70.05597    69.12365     0.65713
       688 27715.26318    70.77332    72.43019     0.65033
       689 27737.43539    72.43133    71.12580     0.63763
       690 27759.62533    75.21921    74.70742     0.61143
       691 27781.83303    78.23776    80.45589     0.59416
       692 27804.05850    80.18768    81.16879     0.56994
       693 27826.30175    81.70570    86.04172     0.56856
       694 27848.56279    84.44000    86.22312     0.56065
       695 27870.84164    87.62428    88.72188     0.53204
       696 27893.13831    89.17496    87.30897     0.50566
       697 27915.45282    89.64662    91.72204     0.52060
       698 27937.78519    89.76490    89.98752     0.49939
       699 27960.13541    87.52274    90.67443     0.50783
       700 27982.50352    82.51511    84.01558     0.54061
       701 28004.88953    77.38426    76.84994     0.57704
       702 28027.29344    74.02543    77.61065     0.58258
       703 28049.71527    72.26121    75.01660     0.57398
       704 28072.15504    71.26942    73.84453     0.59640
       705 28094.61277    70.64171    74.39292     0.58964
       706 28117.08846    70.26843    71.42917     0.60362
       707 28139.58213    70.07879    74.23020     0.59362
       708 28162.09379    70.00006    71.06406     0.59851
       709 28184.62347    69.98703    70.47188     0.60363
       710 28207.17117    70.03443    74.14283     0.58606
       711 28229.73691    70.20800    71.82874     0.57551
       712 28252.32069    70.73875    74.66223     0.59893
       713 28274.92255    72.06383    79.22208     0.56235
       714 28297.54249    74.42268    76.74470     0.55225
       715 28320.18052    76.99754    83.49763     0.53872
       716 28342.83667    78.00393    82.73147     0.54022
       717 28365.51094    76.87935    80.69416     0.53485
       718 28388.20335    75.11413    82.72637     0.54004
       719 28410.91391    74.11823    80.02123     0.54642
       720 28433.64264    73.98823    82.31088     0.53040
       721 28456.38955    74.37773    82.38628     0.53529
       722 28479.15467    75.25596    81.61331     0.53624
       723 28501.93799    76.19078    81.70240     0.53385
       724 28524.73954    76.33965    83.96840     0.50934
       725 28547.55933    75.63017    79.58742     0.53692
       726 28570.39738    74.75891    81.23548     0.52869
       727 28593.25370    74.21906    82.60180     0.50936
       728 28616.12830    73.70386    77.64773     0.54071
       729 28639.02120    72.80479    82.36971     0.51934
       730 28661.93242    71.75303    78.61859     0.52290
       731 28684.86197    70.95758    77.20732     0.53129
       732 28707.80985    70.53077    76.05553     0.54515
       733 28730.77610    70.36320    77.35424     0.53602
       734 28753.76072    70.33205    75.06492     0.53626
       735 28776.76373    70.37423    75.81725     0.55343
       736 28799.78514    70.47376    75.38075     0.53646
       737 28822.82497    70.65487    76.35184     0.54304
       738 28845.88323    71.04406    77.16565     0.54155
       739 28868.95994    72.09377    75.63253     0.55090
       740 28892.05511    74.88456    80.22037     0.51307
       741 28915.16875    80.66738    85.26921     0.51061
       742 28938.30088    88.74191    95.55639     0.47899
       743 28961.45153    94.63218    99.30587     0.45757
       744 28984.62069    93.75266    99.44498     0.46025
       745 29007.80838    87.77769    89.88895     0.48313
       746 29031.01463    82.41064    88.55228     0.48982
       747 29054.23944    81.34826    84.46176     0.50081
       748 29077.48283    84.02637    90.04722     0.48728
       749 29100.74482    86.47036    94.50457     0.48130
       750 29124.02542    85.07312    94.94070     0.48753
       751 29147.32464    80.56805    88.15729     0.50230
       752 29170.64250    75.98959    77.27714     0.55230
       753 29193.97901    73.01280    76.24239     0.54712
       754 29217.33419    71.52787    75.11126     0.55141
       755 29240.70806    70.87065    73.19399     0.55130
       756 29264.10063    70.57224    74.80230     0.54201
       757 29287.51191    70.41948    73.92185     0.56363
       758 29310.94192    70.33028    72.03918     0.57133
       759 29334.39067    70.27277    73.18822     0.57720
       760 29357.85818    70.23338    69.57322     0.56222
       761 29381.34447    70.20573    70.08155     0.58119
       762 29404.84954    70.18651    71.88200     0.56930
       763 29428.37342    70.17364    70.39192     0.57608
       764 29451.91612    70.16397    71.07373     0.57539
       765 29475.47766    70.16084    69.95637     0.56282
       766 29499.05804    70.16323    71.89257     0.57588
       767 29522.65728    70.17127    70.54366     0.57059
       768 29546.27541    70.18640    72.34948     0.56870
       769 29569.91243    70.21781    68.77945     0.57063
       770 29593.56836    70.29699    69.62071     0.59128
       771 29617.24322    70.51705    73.68507     0.58370
       772 29640.93701    71.05386    71.92681     0.57791
       773 29664.64976    72.01075    71.12114     0.58222
       774 29688.38148    73.09602    72.52986     0.57407
       775 29712.13218    73.58207    74.29758     0.55572
       776 29735.90189    73.08333    73.39096     0.54838
       777 29759.69061    72.07303    73.82586     0.56949
       778 29783.49836    71.18659    72.97272     0.57929
       779 29807.32516    70.66158    71.41545     0.57431
       780 29831.17102    70.41995    70.72640     0.58685
       781 29855.03596    70.33645    70.08791     0.57571
       782 29878.91999    70.33157    68.83049     0.57659
       783 29902.82312    70.37691    68.37679     0.56580
       784 29926.74538    70.45780    69.05738     0.56036
       785 29950.68678    70.52579    70.62051     0.57829
       786 29974.64733    70.52850    69.85993     0.55716
       787 29998.62705    70.47446    68.58365     0.59132
       788 30022.62595    70.41584    70.10846     0.57137
       789 30046.64405    70.38746    68.11218     0.57864
       790 30070.68136    70.39376    67.18875     0.57371
       791 30094.73791    70.42932    69.75674     0.55584
       792 30118.81370    70.49927    69.24481     0.57167
       793 30142.90875    70.68099    69.68088     0.57068
       794 30167.02308    71.16459    70.94010     0.56283
       795 30191.15670    72.28943    71.90141     0.57955
       796 30215.30962    74.26283    72.77781     0.56011
       797 30239.48187    76.59800    75.29348     0.53399
       798 30263.67345    78.10006    77.82470     0.51871
       799 30287.88439    78.12257    77.57453     0.52253
       800 30312.11470    77.10991    75.23013     0.54699
       801 30336.36439    75.54719    73.15411     0.52944
       802 30360.63348    73.80352    70.91145     0.54050
       803 30384.92199    72.32948    70.33950     0.55820
       804 30409.22993    71.37877    68.68152     0.55854
       805 30433.55731    70.89212    69.78729     0.54731
       806 30457.90416    70.67583    66.65050     0.54781
       807 30482.27048    70.58604    69.75887     0.55539
       808 30506.65630    70.55056    68.55522     0.54951
       809 30531.06162    70.54046    66.76081     0.56025
       810 30555.48647    70.54505    69.16326     0.56134
       811 30579.93086    70.56533    68.36892     0.54845
       812 30604.39481    70.59708    69.48533     0.54599
       813 30628.87832    70.63660    68.72579     0.54019
       814 30653.38142    70.68564    71.34981     0.54991
       815 30677.90413    70.74876    66.89488     0.54738
       816 30702.44645    70.83075    68.11525     0.53248
       817 30727.00841    70.93867    67.27818     0.54906
       818 30751.59002    71.08484    67.91829     0.53099
       819 30776.19129    71.29727    71.60564     0.54507
       820 30800.81224    71.66203    70.16821     0.53646
       821 30825.45289    72.45084    71.58812     0.52999
       822 30850.11325    74.35433    72.53364     0.50728
       823 30874.79334    78.58910    78.39050     0.50423
       824 30899.49318    86.27611    85.75604     0.46830
       825 30924.21277    96.72458    97.75487     0.42521
       826 30948.95214   106.07407   107.72570     0.39101
       827 30973.71131   108.85293   106.33811     0.38809
       828 30998.49028   103.02702   103.54831     0.40618
       829 31023.28907    93.37490    90.65956     0.43369
       830 31048.10770    86.73064    88.01128     0.45303
       831 31072.94618    87.14477    85.96920     0.46121
       832 31097.80454    94.57192    92.94254     0.43394
       833 31122.68279   104.11683   102.70973     0.39810
       834 31147.58093   107.74339   107.95248     0.39173
       835 31172.49900   102.02318   103.34819     0.39963
       836 31197.43700    91.61391    91.09754     0.43058
       837 31222.39495    82.49835    82.09508     0.46843
       838 31247.37286    76.96661    78.27883     0.47991
       839 31272.37076    74.25648    74.47521     0.48736
       840 31297.38866    72.93730    70.63516     0.49016
       841 31322.42657    72.16819    69.56523     0.48965
       842 31347.48451    71.67306    71.35802     0.48693
       843 31372.56250    71.37416    69.68073     0.52202
       844 31397.66055    71.21577    69.88815     0.50652
       845 31422.77867    71.14759    70.36190     0.50615
       846 31447.91690    71.13911    72.12903     0.50624
       847 31473.07523    71.17962    69.85128     0.50728
       848 31498.25369    71.27347    69.86203     0.49387
       849 31523.45229    71.45719    69.50721     0.49062
       850 31548.67106    71.84890    69.35530     0.48911
       851 31573.90999    72.80620    72.15538     0.48190
       852 31599.16912    75.10014    74.99550     0.48233
       853 31624.44846    79.72739    79.32192     0.46139
       854 31649.74801    87.03075    85.60084     0.42854
       855 31675.06781    95.69437    92.95193     0.40989
       856 31700.40787   103.14061    99.73081     0.37599
       857 31725.76819   106.78582   104.05406     0.36655
       858 31751.14881   104.29386   101.64614     0.37798
       859 31776.54973    96.40082    93.06831     0.39879
       860 31801.97097    87.75424    86.61079     0.42882
       861 31827.41254    82.97502    80.97608     0.44526
       862 31852.87447    84.36037    80.96218     0.44275
       863 31878.35677    91.42202    87.57584     0.42534
       864 31903.85946    99.95092    96.83895     0.38675
       865 31929.38255   103.11432   104.59640     0.36738
       866 31954.92605    97.95247    98.89604     0.38123
       867 31980.48999    88.54571    89.63886     0.40512
       868 32006.07439    80.26087    78.51279     0.44049
       869 32031.67924    75.19458    73.35000     0.46418
       870 32057.30459    72.72490    70.93018     0.46648
       871 32082.95043    71.63172    70.67328     0.46749
       872 32108.61679    71.12460    71.04059     0.46706
       873 32134.30369    70.85152    70.49426     0.46883
       874 32160.01113    70.67937    66.74554     0.48592
       875 32185.73914    70.55806    66.46184     0.46219
       876 32211.48773    70.46751    68.73924     0.46794
       877 32237.25692    70.39715    70.07232     0.46304
       878 32263.04672    70.33284    69.43177     0.45520
       879 32288.85716    70.28747    66.82169     0.46694
       880 32314.68825    70.25570    68.93285     0.46610
       881 32340.54000    70.23604    70.21555     0.45820
       882 32366.41243    70.23399    68.80954     0.46630
       883 32392.30556    70.27251    68.33498     0.45124
       884 32418.21940    70.40980    65.07132     0.46079
       885 32444.15398    70.74715    66.23167     0.45678
       886 32470.10930    71.35057    72.19224     0.45175
       887 32496.08539    72.04462    68.87730     0.45413
       888 32522.08226    72.41042    71.35349     0.44169
       889 32548.09992    72.18611    71.38339     0.43667
       890 32574.13840    71.62620    71.45331     0.45061
       891 32600.19772    71.21658    70.25189     0.43185
       892 32626.27787    71.36112    68.99200     0.44013
       893 32652.37890    72.33393    72.29032     0.43461
       894 32678.50080    74.10808    73.59915     0.42966
       895 32704.64360    75.97068    73.51994     0.41638
       896 32730.80731    76.66752    76.85031     0.41370
       897 32756.99196    75.66857    72.60769     0.41724
       898 32783.19755    73.79879    74.13546     0.42098
       899 32809.42411    72.13139    70.61120     0.43323
       900 32835.67165    71.10931    70.19274     0.42841
       901 32861.94019    70.62122    71.01233     0.42581
       902 32888.22974    70.43235    69.14964     0.41327
       903 32914.54032    70.36995    69.17372     0.41611
       904 32940.87196    70.30770    70.10037     0.41728
       905 32967.22465    70.21774    68.43031     0.43007
       906 32993.59843    70.13051    67.74621     0.42442
       907 33019.99331    70.07159    68.76760     0.42902
       908 33046.40931    70.04980    67.34323     0.41742
       909 33072.84643    70.04736    69.68960     0.42989
       910 33099.30471    70.07023    70.69614     0.41956
       911 33125.78416    70.11721    70.59394     0.41701
       912 33152.28478    70.18695    71.52593     0.42573
       913 33178.80661    70.28062    69.64021     0.40408
       914 33205.34966    70.41641    69.11413     0.41198
       915 33231.91394    70.64067    72.10791     0.40757
       916 33258.49947    71.09749    74.92617     0.40174
       917 33285.10627    72.26076    72.59153     0.39923
       918 33311.73435    75.12875    76.46062     0.39646
       919 33338.38374    80.95178    81.67168     0.37366
       920 33365.05445    89.71951    91.72593     0.34080
       921 33391.74649    98.25057    96.28304     0.32629
       922 33418.45989   101.19508   103.04696     0.31031
       923 33445.19465    96.54617    91.69933     0.33780
       924 33471.95081    88.08515    87.48055     0.35688
       925 33498.72837    80.65194    79.85395     0.37407
       926 33525.52735    76.26233    77.97073     0.39179
       927 33552.34778    74.43932    76.86899     0.38101
       928 33579.18965    74.28038    73.62290     0.38295
       929 33606.05301    75.58482    71.99246     0.39127
       930 33632.93785    78.23147    75.97407     0.37394
       931 33659.84420    81.01860    79.41711     0.36448
       932 33686.77207    81.85260    81.14576     0.35874
       933 33713.72149    79.90432    78.62584     0.35345
       934 33740.69247    76.55628    73.43636     0.37442
       935 33767.68502    73.58370    74.10416     0.39052
       936 33794.69917    71.72511    72.02464     0.39160
       937 33821.73493    70.80431    70.73409     0.38133
       938 33848.79232    70.40088    69.69362     0.39282
       939 33875.87135    70.22783    71.10085     0.39032
       940 33902.97205    70.15052    71.24966     0.39329
       941 33930.09443    70.11825    72.46839     0.38736
       942 33957.23850    70.11349    68.73269     0.39803
       943 33984.40429    70.13011    70.76115     0.37853
       944 34011.59182    70.16705    72.49053     0.39061
       945 34038.80109    70.22588    68.75845     0.37826
       946 34066.03213    70.31049    67.99786     0.39677
       947 34093.28496    70.42759    70.66279     0.38275
       948 34120.55958    70.58831    76.65972     0.37253
       949 34147.85603    70.81587    73.34014     0.37417
       950 34175.17432    71.15950    72.16653     0.36422
       951 34202.51446    71.78388    73.39355     0.35590
       952 34229.87647    73.18538    73.46570     0.36813
       953 34257.26037    76.53341    76.59212     0.34734
       954 34284.66618    83.63908    85.91934     0.33162
       955 34312.09391    95.64910    97.11564     0.30668
       956 34339.54359   110.66888   106.84426     0.27840
       957 34367.01522   123.09216   119.52203     0.26202
       958 34394.50883   127.89544   126.21814     0.24889
       959 34422.02444   124.97754   126.36720     0.25688
       960 34449.56206   116.88825   117.73441     0.26511
       961 34477.12171   106.87983   108.20044     0.27734
       962 34504.70341    98.23912    95.13830     0.29459
       963 34532.30717    92.15086    91.19973     0.31142
       964 34559.93301    88.14186    93.04833     0.30979
       965 34587.58096    86.53950    86.90637     0.32137
       966 34615.25103    88.21853    84.43746     0.32597
       967 34642.94323    92.10904    91.38130     0.30933
       968 34670.65758    94.42888    96.78048     0.28925
       969 34698.39411    92.00383    95.76229     0.29950
       970 34726.15282    85.87844    86.38927     0.31661
       971 34753.93374    79.42384    83.81529     0.33234
       972 34781.73689    74.83032    77.39573     0.34242
       973 34809.56228    72.30267    73.03706     0.34365
       974 34837.40993    71.10911    71.46931     0.35361
       975 34865.27986    70.55624    73.95530     0.35027
       976 34893.17208    70.26816    73.42878     0.33411
       977 34921.08662    70.09876    75.01264     0.35185
       978 34949.02349    69.98481    70.24466     0.34647
       979 34976.98271    69.90281    69.75487     0.34495
       980 35004.96429    69.84279    74.35141     0.34217
       981 35032.96827    69.79957    70.79843     0.34363
       982 35060.99464    69.77131    72.02164     0.33809
       983 35089.04344    69.75671    72.61782     0.34458
       984 35117.11467    69.75584    72.45734     0.34238
       985 35145.20836    69.76823    72.32295     0.34268
       986 35173.32453    69.79913    70.16090     0.33789
       987 35201.46319    69.86301    71.76504     0.34324
       988 35229.62436    69.98543    72.19473     0.34389
       989 35257.80806    70.25704    72.77846     0.33354
       990 35286.01431    70.94255    70.45916     0.33674
       991 35314.24312    72.56563    72.45008     0.33729
       992 35342.49451    75.72815    75.06717     0.32042
       993 35370.76851    80.36553    81.06298     0.31340
       994 35399.06512    84.88129    85.03029     0.30650
       995 35427.38437    86.60241    87.09518     0.30310
       996 35455.72628    84.35904    85.19329     0.30545
       997 35484.09086    79.84965    78.27712     0.32610
       998 35512.47814    75.54207    79.19100     0.31346
       999 35540.88812    72.68969    75.85008     0.33714
      1000 35569.32083    71.26134    72.54939     0.32086
      1001 35597.77629    70.79294    71.55570     0.33173
      1002 35626.25451    71.05324    72.97862     0.33350
      1003 35654.75551    72.23311    72.64077     0.33889
      1004 35683.27931    74.69535    72.88531     0.32806
      1005 35711.82594    78.28489    76.28724     0.31651
      1006 35740.39540    81.64474    79.69253     0.31205
      1007 35768.98771    82.69511    79.62601     0.30131
      1008 35797.60290    80.70373    80.90881     0.30290
      1009 35826.24099    77.11463    80.14959     0.31314
      1010 35854.90198    73.80222    77.62447     0.31843
      1011 35883.58590    71.63260    71.13740     0.32951
      1012 35912.29277    70.49811    69.89252     0.34093
      1013 35941.02260    69.98528    73.09175     0.33251
      1014 35969.77542    69.75354    69.30386     0.33954
      1015 35998.55124    69.63505    69.17759     0.32504
      1016 36027.35008    69.56857    65.71307     0.33554
      1017 36056.17196    69.52495    69.72376     0.32495
      1018 36085.01690    69.49150    69.24546     0.32482
      1019 36113.88491    69.46905    69.19150     0.33670
      1020 36142.77602    69.45579    69.82869     0.33405
      1021 36171.69024    69.44801    68.85270     0.32567
      1022 36200.62760    69.44096    70.43796     0.32950
      1023 36229.58810    69.43133    68.69239     0.32254
      1024 36258.57177    69.42947    67.67610     0.31728
      1025 36287.57863    69.43326    72.13417     0.32023
      1026 36316.60869    69.43894    67.84184     0.33404
      1027 36345.66198    69.44620    68.15067     0.31624
      1028 36374.73851    69.45562    68.45728     0.32606
      1029 36403.83830    69.46743    70.72963     0.32133
      1030 36432.96137    69.48188    71.78442     0.31464
      1031 36462.10774    69.49929    68.03728     0.32172
      1032 36491.27742    69.52015    72.39116     0.31052
      1033 36520.47044    69.54513    72.34540     0.31152
      1034 36549.68682    69.57516    67.18777     0.31288
      1035 36578.92657    69.61152    72.36171     0.31594
      1036 36608.18971    69.65608    68.72638     0.30965
      1037 36637.47626    69.71147    69.76556     0.30830
      1038 36666.78624    69.78193    67.88066     0.30715
      1039 36696.11967    69.87536    69.78131     0.31080
      1040 36725.47657    70.01117    69.64749     0.30798
      1041 36754.85695    70.24576    71.89955     0.29683
      1042 36784.26084    70.73609    73.77745     0.29907
      1043 36813.68824    71.83497    71.48018     0.29074
      1044 36843.13919    74.09485    72.73429     0.29540
      1045 36872.61371    77.94316    83.07871     0.28084
      1046 36902.11180    83.03443    85.08808     0.26762
      1047 36931.63349    87.90721    89.28808     0.26396
      1048 36961.17879    90.86920    94.05783     0.25064
      1049 36990.74774    91.61631    92.99450     0.24969
      1050 37020.34033    90.73567    91.56061     0.24960
      1051 37049.95661    88.22426    93.44108     0.25883
      1052 37079.59657    84.28241    85.64163     0.27082
      1053 37109.26025    80.15731    78.81253     0.28115
      1054 37138.94766    77.08996    80.67826     0.27015
      1055 37168.65882    75.27628    76.37281     0.27238
      1056 37198.39374    74.07271    78.19833     0.27681
      1057 37228.15246    72.93573    75.77936     0.28466
      1058 37257.93498    71.84591    72.77246     0.28921
      1059 37287.74133    70.99014    73.49277     0.28763
      1060 37317.57152    70.44736    74.88054     0.28622
      1061 37347.42558    70.15990    68.67685     0.28916
      1062 37377.30352    70.02063    68.86587     0.28029
      1063 37407.20536    69.94674    72.61274     0.28328
      1064 37437.13113    69.90824    68.07290     0.28882
      1065 37467.08083    69.89107    72.30944     0.27933
      1066 37497.05449    69.88606    70.35769     0.28417
      1067 37527.05214    69.88747    71.85535     0.28300
      1068 37557.07378    69.89668    71.73725     0.27370
      1069 37587.11944    69.91411    71.53653     0.28807
      1070 37617.18913    69.94706    70.60931     0.28490
      1071 37647.28289    69.98749    71.93884     0.28387
      1072 37677.40071    70.04150    71.15147     0.29071
      1073 37707.54263    70.12129    73.31434     0.27511
      1074 37737.70867    70.25510    71.81289     0.27899
      1075 37767.89883    70.51039    72.98061     0.28609
      1076 37798.11315    71.03481    72.01227     0.27871
      1077 37828.35164    72.09824    72.45795     0.27051
      1078 37858.61432    74.06303    78.77735     0.25447
      1079 37888.90122    77.14783    73.83010     0.27421
      1080 37919.21234    80.97673    80.62959     0.24609
      1081 37949.54771    84.29241    86.60309     0.24192
      1082 37979.90735    85.53137    86.91625     0.23370
      1083 38010.29127    84.42645    86.48675     0.23923
      1084 38040.69950    82.33413    85.82861     0.24466
      1085 38071.13206    80.49029    81.84939     0.24044
      1086 38101.58897    78.88260    80.73977     0.24976
      1087 38132.07024    76.97973    80.48894     0.24183
      1088 38162.57590    74.83075    73.75047     0.24807
      1089 38193.10596    72.92850    74.01401     0.25753
      1090 38223.66044    71.61012    71.48325     0.27430
      1091 38254.23937    70.86626    67.08848     0.26723
      1092 38284.84276    70.50335    73.74952     0.27037
      1093 38315.47064    70.33511    69.55761     0.26964
      1094 38346.12301    70.25277    70.21934     0.26536
      1095 38376.79991    70.20780    69.95592     0.27372
      1096 38407.50135    70.18122    69.23793     0.26662
      1097 38438.22735    70.16561    70.22330     0.26550
      1098 38468.97793    70.15767    67.33405     0.27335
      1099 38499.75312    70.15561    70.13808     0.26937
      1100 38530.55292    70.15837    70.41658     0.25930
      1101 38561.37736    70.16524    68.61705     0.26281
      1102 38592.22646    70.17580    70.64205     0.25821
      1103 38623.10024    70.18975    67.00534     0.25961
      1104 38653.99872    70.20703    71.50909     0.25425
      1105 38684.92192    70.22335    71.33413     0.26490
      1106 38715.86986    70.24590    70.98007     0.25817
      1107 38746.84256    70.27436    69.77683     0.25452
      1108 38777.84003    70.30458    67.40495     0.25337
      1109 38808.86230    70.34094    73.24156     0.25302
      1110 38839.90939    70.38601    70.39581     0.25645
      1111 38870.98132    70.43943    66.85432     0.26004
      1112 38902.07811    70.50292    72.03970     0.24510
      1113 38933.19977    70.58542    69.06371     0.24038
      1114 38964.34633    70.68825    72.40078     0.24384
      1115 38995.51781    70.80807    67.72043     0.24623
      1116 39026.71422    70.96226    69.48694     0.23637
      1117 39057.93559    71.18380    71.02163     0.22911
      1118 39089.18194    71.56360    75.29222     0.23883
      1119 39120.45328    72.34485    72.61723     0.23416
      1120 39151.74965    74.05026    71.33711     0.23944
      1121 39183.07105    77.46480    77.40434     0.23025
      1122 39214.41750    83.16759    83.71557     0.21108
      1123 39245.78904    90.62636    94.41693     0.20339
      1124 39277.18567    97.65504    94.63031     0.19070
      1125 39308.60742   101.53760   103.40516     0.19045
      1126 39340.05430   101.62671   102.65194     0.18124
      1127 39371.52635    99.63596    94.24621     0.19778
      1128 39403.02357    97.11295    95.28237     0.19256
      1129 39434.54599    94.60861    93.61487     0.19483
      1130 39466.09362    92.95443    93.45071     0.19035
      1131 39497.66650    93.03557    88.20402     0.19779
      1132 39529.26463    94.16246    91.68306     0.18882
      1133 39560.88804    93.98495    91.60746     0.19163
      1134 39592.53675    90.91583    91.76258     0.18917
      1135 39624.21078    85.92985    86.53419     0.19876
      1136 39655.91015    81.10968    80.21088     0.20434
      1137 39687.63488    77.77537    76.07464     0.21421
      1138 39719.38499    76.24535    75.27450     0.21160
      1139 39751.16050    76.50595    75.16814     0.22580
      1140 39782.96142    78.45692    76.79953     0.21006
      1141 39814.78779    81.48982    80.42311     0.20992
      1142 39846.63962    84.09971    86.37981     0.20754
      1143 39878.51694    84.52259    86.31714     0.19825
      1144 39910.41975    82.33704    82.26610     0.20327
      1145 39942.34808    78.81639    82.82536     0.20271
      1146 39974.30196    75.53219    77.57995     0.21573
      1147 40006.28140    73.27374    74.01530     0.21575
      1148 40038.28643    72.02278    73.52478     0.21139
      1149 40070.31706    71.42124    70.04205     0.22061
      1150 40102.37331    71.14409    65.74392     0.22668
      1151 40134.45521    71.00657    69.66368     0.21783
      1152 40166.56278    70.92774    65.91992     0.22266
      1153 40198.69603    70.87680    69.65766     0.21850
      1154 40230.85498    70.84211    67.75073     0.22356
      1155 40263.03967    70.81872    70.13799     0.22305
      1156 40295.25010    70.80405    68.01376     0.20919
      1157 40327.48630    70.79661    72.79674     0.21161
      1158 40359.74829    70.79548    67.72894     0.21718
      1159 40392.03609    70.80016    69.65991     0.21183
      1160 40424.34971    70.81051    68.61495     0.20605
      1161 40456.68919    70.82665    66.35285     0.21927
      1162 40489.05455    70.84903    71.81310     0.21098
      1163 40521.44579    70.87915    70.12044     0.21111
      1164 40553.86295    70.91708    70.63788     0.21194
      1165 40586.30604    70.96487    71.14081     0.19906
      1166 40618.77508    71.02525    71.08680     0.20718
      1167 40651.27010    71.10200    70.01729     0.19944
      1168 40683.79112    71.20084    68.81955     0.20103
      1169 40716.33815    71.33169    68.01131     0.21058
      1170 40748.91122    71.51631    68.52713     0.19918
      1171 40781.51035    71.81401    70.30160     0.20595
      1172 40814.13556    72.39388    70.27729     0.21057
      1173 40846.78687    73.68157    73.67700     0.19838
      1174 40879.46430    76.51534    64.62975     0.19276
      1175 40912.16787    82.01587    74.22096     0.18038
      1176 40944.89760    90.76772    86.12592     0.17788
      1177 40977.65352   101.45275    95.94496     0.16872
      1178 41010.43564   110.15814    95.85317     0.15647
      1179 41043.24399   112.23800   103.62583     0.15348
      1180 41076.07859   106.50765   102.76919     0.15543
      1181 41108.93945    96.41164    88.69059     0.16554
      1182 41141.82660    86.49023    84.84208     0.17508
      1183 41174.74006    79.32296    74.31246     0.18728
      1184 41207.67985    75.16646    73.70527     0.18996
      1185 41240.64600    73.09768    63.86435     0.18805
      1186 41273.63852    72.14480    66.26189     0.18741
      1187 41306.65743    71.69112    71.06714     0.19248
      1188 41339.70275    71.44119    68.20824     0.19303
      1189 41372.77451    71.27566    67.89675     0.19015
      1190 41405.87273    71.15892    73.77586     0.18888
      1191 41438.99743    71.07061    68.77773     0.19315
      1192 41472.14863    71.00137    66.14166     0.19004
      1193 41505.32635    70.94149    67.27368     0.18866
      1194 41538.53061    70.89276    67.85318     0.19246
      1195 41571.76143    70.85543    67.03234     0.18921
      1196 41605.01884    70.82488    67.80110     0.18914
      1197 41638.30286    70.79907    69.05301     0.17501
      1198 41671.61350    70.77718    69.35641     0.18722
      1199 41704.95079    70.75876    65.23910     0.18998
      1200 41738.31475    70.74297    67.13062     0.18384
      1201 41771.70540    70.72932    69.86002     0.17682
      1202 41805.12277    70.71721    66.16721     0.17992
      1203 41838.56687    70.70227    70.75802     0.17960
      1204 41872.03772    70.69207    71.76367     0.18373
      1205 41905.53535    70.68392    65.59463     0.18054
      1206 41939.05978    70.67684    70.97080     0.17053
      1207 41972.61103    70.67055    67.95099     0.17307
      1208 42006.18912    70.66494    67.30793     0.17529
      1209 42039.79407    70.65992    69.10182     0.16698
      1210 42073.42590    70.65544    71.18003     0.16917
      1211 42107.08464    70.65144    67.07006     0.17807
      1212 42140.77031    70.64792    71.04187     0.17061
      1213 42174.48293    70.64485    70.17760     0.16789
      1214 42208.22251    70.64226    71.15663     0.17252
      1215 42241.98909    70.64018    72.18739     0.17249
      1216 42275.78268    70.63867    68.70774     0.16636
      1217 42309.60331    70.63784    73.72823     0.16983
      1218 42343.45099    70.63867    68.26816     0.17257
      1219 42377.32575    70.64059    76.12816     0.16545
      1220 42411.22761    70.64359    70.63243     0.16641
      1221 42445.15659    70.64856    68.40764     0.16589
      1222 42479.11272    70.65789    71.30467     0.16216
      1223 42513.09601    70.67753    69.71110     0.16374
      1224 42547.10649    70.72258    67.55414     0.16615
      1225 42581.14417    70.82474    71.11374     0.16186
      1226 42615.20909    71.03298    71.06253     0.15393
      1227 42649.30125    71.39039    70.57908     0.16028
      1228 42683.42070    71.88108    74.49571     0.15398
      1229 42717.56743    72.37893    78.17072     0.14868
      1230 42751.74149    72.66641    73.44756     0.15314
      1231 42785.94288    72.58365    72.55172     0.14843
      1232 42820.17163    72.18420    79.37048     0.15072
      1233 42854.42777    71.67355    74.29379     0.15119
      1234 42888.71131    71.23522    74.93499     0.15435
      1235 42923.02228    70.94558    71.09289     0.15954
      1236 42957.36070    70.79166    69.55346     0.15748
      1237 42991.72659    70.72731    71.85863     0.15230
      1238 43026.11997    70.71460    75.34700     0.14967
      1239 43060.54087    70.74120    74.01061     0.15314
      1240 43094.98930    70.82946    76.94365     0.14962
      1241 43129.46529    71.03236    74.36904     0.14774
      1242 43163.96886    71.46888    77.26121     0.14866
      1243 43198.50004    72.20799    79.59436     0.14306
      1244 43233.05884    73.17714    80.67059     0.14021
      1245 43267.64528    74.08165    73.98748     0.14486
      1246 43302.25940    74.48828    73.50196     0.14631
      1247 43336.90121    74.15979    81.28401     0.14690
      1248 43371.57073    73.29320    73.70611     0.15223
      1249 43406.26799    72.30514    75.68034     0.14365
      1250 43440.99300    71.50828    76.59101     0.14453
      1251 43475.74579    70.99938    73.67628     0.14741
      1252 43510.52639    70.72491    74.67943     0.14364
      1253 43545.33481    70.59014    73.49480     0.14096
      1254 43580.17108    70.52287    76.51386     0.13884
      1255 43615.03522    70.48435    78.46260     0.14260
      1256 43649.92724    70.45787    71.73298     0.14534
      1257 43684.84719    70.43704    70.71291     0.14791
      1258 43719.79506    70.41937    77.58496     0.13991
      1259 43754.77090    70.40378    72.60570     0.14790
      1260 43789.77472    70.38968    76.56667     0.14135
      1261 43824.80654    70.37670    75.85224     0.14578
      1262 43859.86638    70.36457    76.20238     0.14532
      1263 43894.95428    70.35313    73.48436     0.14786
      1264 43930.07024    70.34225    75.35703     0.13984
      1265 43965.21429    70.33184    75.99556     0.14216
      1266 44000.38647    70.32185    71.41102     0.14307
      1267 44035.58678    70.31224    75.14826     0.14835
      1268 44070.81524    70.30302    74.77012     0.14471
      1269 44106.07190    70.29419    69.00806     0.14301
      1270 44141.35675    70.28578    70.08452     0.14565
      1271 44176.66984    70.27787    71.79965     0.14507
      1272 44212.01118    70.27054    68.28882     0.14090
      1273 44247.38078    70.26391    76.30595     0.14581
      1274 44282.77869    70.25816    75.80413     0.14685
      1275 44318.20491    70.25353    75.88359     0.14345
      1276 44353.65948    70.25037    72.69199     0.14229
      1277 44389.14240    70.24917    70.85723     0.14571
      1278 44424.65372    70.25071    68.34125     0.14653
      1279 44460.19344    70.25655    73.58231     0.14713
      1280 44495.76160    70.27035    70.24193     0.15122
      1281 44531.35820    70.30414    69.33357     0.15032
      1282 44566.98329    70.39047    71.11570     0.14618
      1283 44602.63688    70.57091    74.21280     0.15463
      1284 44638.31899    70.93459    72.17603     0.14657
      1285 44674.02964    71.58337    66.61917     0.14682
      1286 44709.76887    72.57808    74.15068     0.14508
      1287 44745.53668    73.73433    76.17565     0.13837
      1288 44781.33311    74.66365    74.63361     0.13739
      1289 44817.15818    74.92808    73.59914     0.14538
      1290 44853.01190    74.39757    73.50667     0.14108
      1291 44888.89431    73.36341    72.98806     0.14277
      1292 44924.80543    72.27085    71.89811     0.14580
      1293 44960.74527    71.43418    73.18033     0.14354
      1294 44996.71387    70.95979    69.43388     0.13926
      1295 45032.71124    70.82439    69.95888     0.14470
      1296 45068.73741    70.96710    68.48347     0.14660
      1297 45104.79240    71.31204    74.71690     0.14145
      1298 45140.87623    71.72173    68.66173     0.14212
      1299 45176.98893    72.00200    65.53474     0.14010
      1300 45213.13053    71.98894    70.46018     0.14067
      1301 45249.30103    71.67811    71.05883     0.13861
      1302 45285.50047    71.21897    70.13151     0.14396
      1303 45321.72887    70.78156    69.80505     0.14625
      1304 45357.98625    70.45934    70.05230     0.14448
      1305 45394.27264    70.26186    70.21716     0.14350
      1306 45430.58806    70.15459    65.65633     0.14442
      1307 45466.93253    70.09820    69.80037     0.13521
      1308 45503.30608    70.06620    73.01375     0.13805
      1309 45539.70872    70.04510    70.26705     0.13564
      1310 45576.14049    70.02801    74.41094     0.14237
      1311 45612.60140    70.01449    67.66679     0.14140
      1312 45649.09148    70.00355    67.75987     0.13240
      1313 45685.61076    69.99437    70.00270     0.13843
      1314 45722.15924    69.98667    68.94355     0.14247
      1315 45758.73697    69.98033    69.13903     0.13370
      1316 45795.34396    69.97530    67.13865     0.13851
      1317 45831.98024    69.97156    68.05343     0.13173
      1318 45868.64582    69.96915    73.08649     0.13088
      1319 45905.34074    69.96810    69.96878     0.13360
      1320 45942.06501    69.96850    67.23270     0.14105
      1321 45978.81866    69.97045    67.73895     0.13282
      1322 46015.60172    69.97408    71.89044     0.13811
      1323 46052.41420    69.97957    73.35924     0.13473
      1324 46089.25613    69.98708    69.34296     0.13416
      1325 46126.12754    69.99685    70.47809     0.13039
      1326 46163.02844    70.00914    71.43575     0.12964
      1327 46199.95886    70.02425    74.12056     0.13172
      1328 46236.91883    70.04255    73.11707     0.12168
      1329 46273.90836    70.06446    67.27713     0.13253
      1330 46310.92749    70.09050    73.71618     0.13048
      1331 46347.97623    70.12126    65.54080     0.13176
      1332 46385.05461    70.15746    73.67281     0.13142
      1333 46422.16266    70.19995    73.59284     0.13341
      1334 46459.30039    70.24978    71.64701     0.13097
      1335 46496.46783    70.30820    67.45410     0.13056
      1336 46533.66500    70.37675    67.79035     0.13079
      1337 46570.89193    70.45734    69.98705     0.13161
      1338 46608.14865    70.55234    73.90886     0.12934
      1339 46645.43516    70.66477    68.79179     0.13271
      1340 46682.75151    70.79843    69.11165     0.12810
      1341 46720.09771    70.95828    67.40833     0.12690
      1342 46757.47379    71.15081    68.98055     0.13114
      1343 46794.87977    71.38484    66.27721     0.12803
      1344 46832.31567    71.67325    69.73655     0.13005
      1345 46869.78153    72.03673    71.85388     0.12434
      1346 46907.27735    72.51561    71.78432     0.12249
      1347 46944.80317    73.20050    69.27828     0.12267
      1348 46982.35902    74.30253    79.63194     0.11661
      1349 47019.94490    76.27771    72.52048     0.11833
      1350 47057.56086    79.96765    77.15534     0.11533
      1351 47095.20691    86.61577    87.58686     0.10443
      1352 47132.88307    97.50781    95.18403     0.10283
      1353 47170.58938   113.28283   114.88404     0.09293
      1354 47208.32585   133.31626   139.73281     0.07944
      1355 47246.09251   155.87750   149.04090     0.07501
      1356 47283.88939   179.32545   175.93238     0.06826
      1357 47321.71650   203.13915   207.36733     0.06081
      1358 47359.57387   226.07013   225.29461     0.05436
      1359 47397.46153   242.33547   248.41777     0.05204
      1360 47435.37950   242.52592   241.75412     0.05184
      1361 47473.32780   222.21993   222.11399     0.05551
      1362 47511.30647   187.97085   190.52609     0.06214
      1363 47549.31551   151.75684   157.58669     0.07285
      1364 47587.35496   122.76263   130.57969     0.08301
      1365 47625.42485   104.12361   104.79739     0.09851
      1366 47663.52519    94.18551    93.07797     0.10330
      1367 47701.65601    89.79493    98.22205     0.10203
      1368 47739.81733    88.80497    90.30551     0.10112
      1369 47778.00919    90.54603    96.57949     0.10085
      1370 47816.23159    94.73129   100.87007     0.10369
      1371 47854.48458   100.24721   105.31775     0.09451
      1372 47892.76817   104.82500   108.18355     0.09710
      1373 47931.08238   106.05055   100.72943     0.09186
      1374 47969.42725   103.10087    99.14002     0.09716
      1375 48007.80279    97.12717   103.11372     0.09558
      1376 48046.20903    90.04993    85.76220     0.10370
      1377 48084.64600    83.50985    88.53376     0.10316
      1378 48123.11371    78.41781    78.82351     0.10764
      1379 48161.61221    74.93871    74.17958     0.10922
      1380 48200.14150    72.78375    74.92645     0.10446
      1381 48238.70161    71.52949    70.27138     0.10376
      1382 48277.29257    70.80830    72.01251     0.10294
      1383 48315.91440    70.37242    71.81370     0.09590
      1384 48354.56714    70.08230    71.40385     0.09525
      1385 48393.25079    69.86901    67.23915     0.09835
      1386 48431.96539    69.70061    68.03828     0.09772
      1387 48470.71096    69.56182    68.53425     0.10097
      1388 48509.48753    69.44436    71.28545     0.10333
      1389 48548.29512    69.34318    71.44776     0.10527
      1390 48587.13376    69.25494    69.15663     0.10868
      1391 48626.00346    69.17731    66.90339     0.11553
      1392 48664.90427    69.10862    65.29636     0.10663
      1393 48703.83619    69.04761    69.73411     0.11183
      1394 48742.79926    68.99334    71.96101     0.11814
      1395 48781.79350    68.94508    67.83037     0.11802
      1396 48820.81893    68.90228    71.80296     0.11666
      1397 48859.87559    68.86452    70.36800     0.11466
      1398 48898.96349    68.83150    70.53986     0.11073
      1399 48938.08266    68.80305    67.24990     0.11276
      1400 48977.23313    68.77907    75.57355     0.11189
      1401 49016.41491    68.75956    66.38060     0.10922
      1402 49055.62804    68.74459    69.88378     0.11375
      1403 49094.87255    68.73437    72.38933     0.11443
      1404 49134.14845    68.72917    67.56915     0.11230
      1405 49173.45576    68.72935    66.16781     0.10998
      1406 49212.79453    68.73542    73.96282     0.11472
      1407 49252.16476    68.74804    68.87707     0.10708
      1408 49291.56650    68.76803    74.62471     0.11257
      1409 49330.99975    68.79645    73.15002     0.10080
      1410 49370.46455    68.83461    68.99407     0.10460
      1411 49409.96092    68.88419    65.38666     0.11103
      1412 49449.48889    68.94732    66.18268     0.11151
      1413 49489.04848    69.02676    73.95509     0.10464
      1414 49528.63972    69.12606    70.24114     0.10303
      1415 49568.26263    69.24999    70.66369     0.10936
      1416 49607.91724    69.40522    71.22375     0.11336
      1417 49647.60357    69.60208    64.97234     0.10991
      1418 49687.32166    69.85939    73.77869     0.11304
      1419 49727.07152    70.21748    66.99281     0.10724
      1420 49766.85317    70.76948    69.12438     0.11337
      1421 49806.66665    71.72190    69.94223     0.10597
      1422 49846.51199    73.47668    73.29336     0.09815
      1423 49886.38920    76.66984    75.79987     0.09946
      1424 49926.29831    82.03164    77.34634     0.09459
      1425 49966.23935    89.98270    89.63198     0.09323
      1426 50006.21234   100.11300   104.84202     0.08269
      1427 50046.21731   111.00714   105.04385     0.08329
      1428 50086.25428   120.96272   113.44103     0.08020
      1429 50126.32329   129.84688   121.98202     0.07472
      1430 50166.42434   140.41098   129.83062     0.07197
      1431 50206.55748   156.19199   145.76298     0.06839
      1432 50246.72273   177.30126   167.20357     0.05917
      1433 50286.92011   198.03758   193.84449     0.05383
      1434 50327.14964   208.61465   200.26371     0.05092
      1435 50367.41136   201.78147   191.53691     0.05357
      1436 50407.70529   179.08871   166.49976     0.05843
      1437 50448.03146   149.11909   148.59363     0.06325
      1438 50488.38988   120.84399   113.28096     0.07586
      1439 50528.78059    99.40054   104.58717     0.09004
      1440 50569.20362    85.65331    88.13255     0.08765
      1441 50609.65898    77.91166    80.88230     0.09507
      1442 50650.14671    73.89257    78.04622     0.09621
      1443 50690.66683    71.82421    67.12216     0.10148
      1444 50731.21936    70.67106    69.79725     0.09794
      1445 50771.80434    69.94583    67.80671     0.10621
      1446 50812.42178    69.42548    67.90668     0.09956
      1447 50853.07172    69.02146    72.49827     0.10194
      1448 50893.75417    68.69458    65.50169     0.10076
      1449 50934.46918    68.42280    70.37973     0.10527
      1450 50975.21675    68.19289    66.09478     0.09589
      1451 51015.99693    67.99573    65.64028     0.09963
      1452 51056.80972    67.82791    61.10091     0.10938
      1453 51097.65517    67.68141    68.38763     0.10391
      1454 51138.53330    67.54895    68.98497     0.10239
      1455 51179.44412    67.43020    67.46126     0.09567
      1456 51220.38768    67.32307    68.30877     0.10090
      1457 51261.36399    67.22568    65.38621     0.09612
      1458 51302.37308    67.13649    65.30353     0.09754
      1459 51343.41498    67.05428    66.17354     0.10274
      1460 51384.48971    66.97802    63.31417     0.10654
      1461 51425.59730    66.90686    66.50599     0.09910
      1462 51466.73778    66.84013    66.08842     0.09812
      1463 51507.91117    66.77724    69.00574     0.09953
      1464 51549.11750    66.71767    69.89714     0.09573
      1465 51590.35679    66.66102    57.64791     0.09860
      1466 51631.62908    66.60693    68.59588     0.10076
      1467 51672.93438    66.55510    63.27918     0.09790
      1468 51714.27273    66.50528    67.17489     0.09736
      1469 51755.64415    66.45724    64.13737     0.09813
      1470 51797.04866    66.41080    65.75438     0.09655
      1471 51838.48630    66.36578    65.23183     0.09985
      1472 51879.95709    66.32205    61.89628     0.09669
      1473 51921.46106    66.27948    63.07812     0.09580
      1474 51962.99822    66.23795    66.69207     0.09526
      1475 52004.56862    66.19737    69.20705     0.09198
      1476 52046.17228    66.15765    70.22679     0.10001
      1477 52087.80922    66.11872    65.63679     0.08889
      1478 52129.47946    66.08052    64.36422     0.09443
      1479 52171.18305    66.04298    63.78449     0.09494
      1480 52212.91999    66.00605    62.43261     0.09209
      1481 52254.69033    65.96969    70.59622     0.09197
      1482 52296.49408    65.93384    65.32026     0.09627
      1483 52338.33128    65.89848    64.74383     0.09521
      1484 52380.20194    65.86358    61.09622     0.09040
      1485 52422.10610    65.82910    65.46335     0.09448
      1486 52464.04379    65.79502    66.78404     0.09605
      1487 52506.01502    65.76132    61.39805     0.08932
      1488 52548.01983    65.72798    56.85470     0.09589
      1489 52590.05825    65.69499    60.22487     0.08908
      1490 52632.13030    65.66233    59.84289     0.08723
      1491 52674.23600    65.63000    65.33549     0.09550
      1492 52716.37539    65.59797    64.10608     0.09767
      1493 52758.54849    65.56625    64.62750     0.09955
      1494 52800.75533    65.53482    71.31632     0.08990
      1495 52842.99593    65.50370    60.33243     0.09138
      1496 52885.27033    65.47287    64.83070     0.09197
      1497 52927.57855    65.44234    60.19640     0.09328
      1498 52969.92061    65.41212    59.81976     0.09140
      1499 53012.29655    65.38221    60.21031     0.08525
      1500 53054.70638    65.35261    63.93815     0.09252
      1501 53097.15015    65.31139    64.66563     0.08371
      1502 53139.62787    65.27699    65.96560     0.08495
      1503 53182.13957    65.24831    60.70263     0.09321
      1504 53224.68528    65.22057    67.40617     0.09139
      1505 53267.26503    65.19330    67.83489     0.09001
      1506 53309.87884    65.16649    65.67063     0.08438
      1507 53352.52675    65.09329    69.25200     0.08638
      1508 53395.20877    65.05553    70.67735     0.08847
      1509 53437.92493    65.03059    66.31854     0.08408
      1510 53480.67527    65.00748    62.07484     0.08444
      1511 53523.45981    64.98529    63.22846     0.08635
      1512 53566.27858    64.96394    68.54325     0.08642
      1513 53609.13161    64.94356    61.34970     0.08570
      1514 53652.01891    64.92433    65.89810     0.08297
      1515 53694.94053    64.90646    64.47070     0.08413
      1516 53737.89648    64.89022    66.51240     0.08805
      1517 53780.88680    64.87596    59.42649     0.09019
      1518 53823.91150    64.86412    66.24253     0.08722
      1519 53866.97063    64.85525    61.55184     0.08438
      1520 53910.06421    64.85010    65.41271     0.08649
      1521 53953.19226    64.84970    63.74266     0.08668
      1522 53996.35482    64.85558    62.46499     0.08467
      1523 54039.55190    64.88722    67.09817     0.07936
      1524 54082.78354    64.93128    65.21330     0.08537
      1525 54126.04977    64.98873    58.09634     0.08511
      1526 54169.35061    65.09919    64.04120     0.08657
      1527 54212.68609    65.32394    70.85468     0.08322
      1528 54256.05624    65.77787    72.89234     0.08377
      1529 54299.46108    66.65479    69.41398     0.07658
      1530 54342.90065    68.16064    68.51085     0.07986
      1531 54386.37497    70.43796    78.05290     0.07514
      1532 54429.88407    73.41207    76.63778     0.07694
      1533 54473.42798    76.61404    77.85196     0.07460
      1534 54517.00672    79.19112    80.57437     0.06905
      1535 54560.62033    80.20890    83.21433     0.06818
      1536 54604.26882    79.23360    79.11672     0.06951
      1537 54647.95224    76.67129    75.02815     0.07162
      1538 54691.67060    73.43691    75.41958     0.07181
      1539 54735.42394    70.39034    65.73842     0.07367
      1540 54779.21227    68.02352    67.71799     0.07773
      1541 54823.03564    66.43918    67.55959     0.07599
      1542 54866.89407    65.49475    71.33079     0.07543
      1543 54910.78759    64.97267    67.93471     0.07885
      1544 54954.71622    64.68855    59.77859     0.07560
      1545 54998.67999    64.52421    62.76794     0.07790
      1546 55042.67894    64.41689    66.02432     0.07390
      1547 55086.71308    64.33730    72.72223     0.07490
      1548 55130.78245    64.27272    68.68807     0.07516
      1549 55174.88708    64.21755    67.05317     0.07702
      1550 55219.02698    64.16903    65.02372     0.07322
      1551 55263.20221    64.12559    71.53744     0.07328
      1552 55307.41277    64.08618    66.64709     0.07347
      1553 55351.65870    64.05009    70.70662     0.07240
      1554 55395.94003    64.01672    64.84526     0.07456
      1555 55440.25678    63.98566    62.20564     0.07435
      1556 55484.60898    63.95659    71.58717     0.07677
      1557 55528.99667    63.92926    67.13763     0.07398
      1558 55573.41987    63.90347    70.39804     0.07337
      1559 55617.87860    63.87906    65.09526     0.07379
      1560 55662.37291    63.85594    60.49263     0.07531
      1561 55706.90280    63.83399    69.49514     0.07591
      1562 55751.46833    63.81317    65.37682     0.07472
      1563 55796.06950    63.79341    66.29925     0.06943
      1564 55840.70636    63.77470    64.18647     0.07343
      1565 55885.37892    63.75701    70.48858     0.07061
      1566 55930.08723    63.74034    67.36148     0.07477
      1567 55974.83129    63.72468    66.19471     0.07021
      1568 56019.61116    63.71006    65.55928     0.07203
      1569 56064.42685    63.69651    66.17020     0.07090
      1570 56109.27839    63.68405    70.31874     0.07307
      1571 56154.16581    63.67274    69.98046     0.07098
      1572 56199.08915    63.66264    59.82406     0.07226
      1573 56244.04842    63.65382    63.97221     0.06900
      1574 56289.04366    63.64635    62.23291     0.07548
      1575 56334.07489    63.64034    64.82410     0.07194
      1576 56379.14215    63.63590    62.95324     0.07288
      1577 56424.24546    63.63316    65.50244     0.07256
      1578 56469.38486    63.63228    74.32387     0.07267
      1579 56514.56037    63.63344    70.08668     0.07290
      1580 56559.77202    63.63685    53.90770     0.07201
      1581 56605.01983    63.64276    68.39989     0.06696
      1582 56650.30385    63.65147    69.86152     0.07207
      1583 56695.62409    63.66330    61.24220     0.06974
      1584 56740.98059    63.67866    73.77623     0.07412
      1585 56786.37338    63.69802    62.87518     0.06669
      1586 56831.80248    63.72196    75.96134     0.06812
      1587 56877.26792    63.75115    62.35251     0.07304
      1588 56922.76973    63.78643    61.88230     0.07318
      1589 56968.30795    63.82880    70.11918     0.07112
      1590 57013.88259    63.87951    63.82118     0.07298
      1591 57059.49370    63.94007    54.00502     0.06870
      1592 57105.14130    64.01240    71.15815     0.06974
      1593 57150.82541    64.09891    60.70268     0.07231
      1594 57196.54607    64.20272    68.08625     0.06650
      1595 57242.30331    64.32794    67.01606     0.06682
      1596 57288.09715    64.48028    69.51612     0.07130
      1597 57333.92763    64.66852    65.00445     0.07403
      1598 57379.79477    64.90807    61.89514     0.07024
      1599 57425.69860    65.22991    69.98717     0.06590
      1600 57471.63916    65.70122    73.47024     0.06752
      1601 57517.61647    66.46671    66.04337     0.06861
      1602 57563.63057    67.81600    62.08273     0.06734
      1603 57609.68147    70.26040    67.40345     0.06485
      1604 57655.76922    74.55658    72.26612     0.06298
      1605 57701.89383    81.56838    75.97268     0.06219
      1606 57748.05535    91.88041    87.24091     0.05517
      1607 57794.25379   105.22747   102.02995     0.05142
      1608 57840.48919   120.02670   116.76921     0.05012
      1609 57886.76159   133.42958   121.12280     0.04668
      1610 57933.07100   142.30427   136.14383     0.04439
      1611 57979.41745   145.12192   132.24589     0.04532
      1612 58025.80099   143.19233   126.06422     0.04448
      1613 58072.22163   139.47960   132.39479     0.04449
      1614 58118.67940   136.19723   128.73822     0.04644
      1615 58165.17435   133.35892   125.23332     0.04694
      1616 58211.70649   129.17542   118.47476     0.04669
      1617 58258.27585   121.91457   122.46434     0.04802
      1618 58304.88247   111.60651   109.24080     0.05234
      1619 58351.52638    99.93323    97.08087     0.05650
      1620 58398.20760    88.94850    89.72233     0.05804
      1621 58444.92617    80.07095    82.45436     0.06307
      1622 58491.68211    73.76680    68.12449     0.06619
      1623 58538.47545    69.74880    67.92492     0.06608
      1624 58585.30623    67.38615    65.30761     0.06326
      1625 58632.17448    66.05111    71.54270     0.06308
      1626 58679.08022    65.28452    65.50300     0.06785
      1627 58726.02348    64.82397    57.62016     0.06632
      1628 58773.00430    64.51073    71.41109     0.06414
      1629 58820.02270    64.27115    60.71481     0.06519
      1630 58867.07872    64.08406    64.80148     0.06584
      1631 58914.17239    63.92871    61.00353     0.06699
      1632 58961.30372    63.79495    68.77849     0.06823
      1633 59008.47277    63.68081    65.35228     0.06466
      1634 59055.67954    63.58273    58.83653     0.06420
      1635 59102.92409    63.49784    63.38270     0.06134
      1636 59150.20643    63.42390    66.14937     0.06601
      1637 59197.52659    63.36278    64.15693     0.06532
      1638 59244.88461    63.30941    58.04396     0.06614
      1639 59292.28052    63.25966    66.91068     0.06784
      1640 59339.71435    63.21514    57.94076     0.06150
      1641 59387.18612    63.17548    62.36478     0.06577
      1642 59434.69587    63.14010    62.53835     0.06937
      1643 59482.24362    63.10845    63.41173     0.06833
      1644 59529.82942    63.08007    62.10203     0.06439
      1645 59577.45328    63.05460    60.22733     0.06606
      1646 59625.11524    63.03171    62.51417     0.06785
      1647 59672.81534    63.01113    58.50152     0.06288
      1648 59720.55359    62.99264    70.04281     0.06380
      1649 59768.33003    62.97601    64.63489     0.06449
      1650 59816.14470    62.96109    66.54920     0.06393
      1651 59863.99761    62.94772    59.74680     0.06410
      1652 59911.88881    62.93577    67.53288     0.05715
      1653 59959.81832    62.92513    59.47148     0.06148
      1654 60007.78617    62.91568    59.74023     0.06504
      1655 60055.79240    62.90735    69.00066     0.06010
      1656 60103.83704    62.90005    71.18824     0.06638
      1657 60151.92011    62.89373    64.94469     0.06591
      1658 60200.04164    62.88830    61.04789     0.06122
      1659 60248.20168    62.88373    60.05780     0.06009
      1660 60296.40024    62.87996    63.05505     0.06672
      1661 60344.63736    62.87694    67.28813     0.06010
      1662 60392.91307    62.87466    65.98005     0.06258
      1663 60441.22740    62.88444    65.16245     0.06219
      1664 60489.58038    62.89482    63.38962     0.05910
      1665 60537.97204    62.89622    67.55795     0.06216
      1666 60586.40242    62.89716    66.20649     0.06111
      1667 60634.87154    62.89862    58.26970     0.05937
      1668 60683.37944    62.90066    67.01607     0.06179
      1669 60731.92615    62.90330    58.93045     0.05625
      1670 60780.51169    62.90653    60.74373     0.06160
      1671 60829.13610    62.91035    62.43756     0.06499
      1672 60877.79940    62.91474    63.68152     0.06507
      1673 60926.50164    62.91972    59.69296     0.05757
      1674 60975.24285    62.92530    62.65097     0.06651
      1675 61024.02304    62.93147    66.85608     0.05924
      1676 61072.84226    62.93827    62.84968     0.06148
      1677 61121.70053    62.94569    61.95529     0.06199
      1678 61170.59789    62.95377    58.65668     0.05991
      1679 61219.53437    62.96254    71.85251     0.05897
      1680 61268.51000    62.97202    65.08927     0.05662
      1681 61317.52481    62.98225    54.98634     0.05602
      1682 61366.57883    62.99329    59.49933     0.05720
      1683 61415.67209    63.00517    68.23075     0.05804
      1684 61464.80463    63.01797    68.49119     0.05801
      1685 61513.97647    63.03176    66.65081     0.05747
      1686 61563.18765    63.04661    58.66275     0.06331
      1687 61612.43820    63.06263    63.14609     0.05575
      1688 61661.72815    63.07992    62.45985     0.05900
      1689 61711.05753    63.09862    61.74059     0.05588
      1690 61760.42638    63.11889    64.68998     0.05872
      1691 61809.83472    63.14090    64.04734     0.05756
      1692 61859.28259    63.13868    64.82589     0.05639
      1693 61908.77002    63.15986    65.11456     0.06065
      1694 61958.29703    63.18878    55.79606     0.05632
      1695 62007.86367    63.22087    68.53944     0.05915
      1696 62057.46996    63.25617    61.95500     0.05582
      1697 62107.11594    63.29498    65.46904     0.05733
      1698 62156.80163    63.31762    62.68527     0.05242
      1699 62206.52707    63.36310    66.28737     0.05688
      1700 62256.29229    63.41715    59.37624     0.05893
      1701 62306.09733    63.47813    57.06510     0.05790
      1702 62355.94220    63.54706    66.55682     0.05505
      1703 62405.82696    63.62544    55.01138     0.05510
      1704 62455.75162    63.71518    61.67158     0.05589
      1705 62505.71622    63.81872    65.93261     0.05565
      1706 62555.72079    63.93926    57.53089     0.05551
      1707 62605.76537    64.08123    60.46694     0.05141
      1708 62655.84998    64.25129    61.84094     0.05598
      1709 62705.97466    64.46078    64.50211     0.05324
      1710 62756.13944    64.73127    57.32816     0.05344
      1711 62806.34435    65.10680    59.35434     0.04941
      1712 62856.58943    65.67781    64.67243     0.05215
      1713 62906.87470    66.62118    67.66245     0.05301
      1714 62957.20020    68.25293    72.21348     0.04750
      1715 63007.56596    71.07056    68.89824     0.05509
      1716 63057.97201    75.73453    69.61367     0.04948
      1717 63108.41839    82.92368    89.84067     0.04579
      1718 63158.90513    93.03117   101.21010     0.04128
      1719 63209.43225   105.75810   105.45053     0.04151
      1720 63259.99980   119.77183   118.74229     0.03679
      1721 63310.60780   132.66979   129.79298     0.03690
      1722 63361.25628   141.53239   136.83427     0.03318
      1723 63411.94529   144.14617   146.74210     0.03322
      1724 63462.67484   140.14512   143.69450     0.03270
      1725 63513.44498   131.06039   130.42098     0.03530
      1726 63564.25574   119.51314   120.29676     0.03831
      1727 63615.10714   108.22367   109.53398     0.04301
      1728 63665.99923    99.13926   100.55105     0.03877
      1729 63716.93203    92.98778    94.04151     0.04266
      1730 63767.90557    89.35108    90.15130     0.04008
      1731 63818.91990    87.09515    86.31238     0.04394
      1732 63869.97503    84.98522    89.15811     0.04283
      1733 63921.07101    82.27560    80.89426     0.04548
      1734 63972.20787    78.92605    73.02838     0.04619
      1735 64023.38564    75.35292    79.56778     0.04799
      1736 64074.60435    72.05264    77.09111     0.04846
      1737 64125.86403    69.36461    74.42461     0.04582
      1738 64177.16472    67.40168    61.16200     0.05192
      1739 64228.50645    66.09501    54.67127     0.05515
      1740 64279.88926    65.28612    60.76323     0.04951
      1741 64331.31317    64.80877    65.38830     0.04875
      1742 64382.77822    64.53325    64.64678     0.05416
      1743 64434.28444    64.37606    60.58030     0.04882
      1744 64485.83187    64.29101    66.55043     0.04920
      1745 64537.42053    64.25650    68.79385     0.04958
      1746 64589.05047    64.26620    66.70168     0.05137
      1747 64640.72171    64.32567    60.31229     0.04990
      1748 64692.43429    64.45570    62.04485     0.04965
      1749 64744.18824    64.70425    62.78449     0.04921
      1750 64795.98359    65.16898    58.20760     0.04935
      1751 64847.82037    66.02960    72.65226     0.04918
      1752 64899.69863    67.57879    65.42987     0.04808
      1753 64951.61839    70.22372    76.95625     0.04711
      1754 65003.57968    74.41598    72.44815     0.04774
      1755 65055.58255    80.47791    83.49181     0.04521
      1756 65107.62701    88.34337    96.52439     0.03906
      1757 65159.71312    97.38524    95.54320     0.04051
      1758 65211.84089   106.06833   111.16717     0.03542
      1759 65264.01036   112.38743   116.48853     0.03364
      1760 65316.22157   114.56406   121.95097     0.03746
      1761 65368.47454   111.89274   108.91155     0.03654
      1762 65420.76932   105.21891   108.43490     0.03754
      1763 65473.10594    96.40304    93.04748     0.04014
      1764 65525.48442    87.38529    87.74613     0.04247
      1765 65577.90481    79.55881    67.93033     0.04358
      1766 65630.36714    73.57465    77.14791     0.04418
      1767 65682.87143    69.45366    68.81436     0.04567
      1768 65735.41773    66.84675    63.55879     0.04784
      1769 65788.00606    65.35102    65.03824     0.04943
      1770 65840.63647    64.49604    64.83458     0.04992
      1771 65893.30897    63.97267    62.03732     0.04639
      1772 65946.02362    63.63499    62.62002     0.04793
      1773 65998.78044    63.39854    58.57147     0.04716
      1774 66051.57946    63.21748    55.71376     0.04654
      1775 66104.42073    63.06948    70.02393     0.04807
      1776 66157.30426    62.94350    70.68560     0.04791
      1777 66210.23011    62.83355    63.13566     0.04903
      1778 66263.19829    62.73591    52.14264     0.04577
      1779 66316.20885    62.64814    55.18004     0.05049
      1780 66369.26182    62.56839    61.16876     0.04700
      1781 66422.35723    62.49527    58.88180     0.04505
      1782 66475.49511    62.42768    59.67621     0.04898
      1783 66528.67551    62.36475    61.92916     0.04444
      1784 66581.89845    62.30577    60.01289     0.04328
      1785 66635.16397    62.25015    63.72166     0.04398
      1786 66688.47210    62.19743    64.99369     0.04527
      1787 66741.82288    62.14724    62.99611     0.04884
      1788 66795.21634    62.09926    62.60480     0.04656
      1789 66848.65251    62.05323    63.78187     0.04477
      1790 66902.13143    62.00894    60.91975     0.04867
      1791 66955.65314    61.96622    63.69971     0.04411
      1792 67009.21766    61.92494    60.85877     0.05070
      1793 67062.82503    61.88496    64.48156     0.04698
      1794 67116.47529    61.84622    58.39694     0.04445
      1795 67170.16847    61.80862    65.38685     0.04596
      1796 67223.90461    61.77213    61.29528     0.04181
      1797 67277.68373    61.73669    59.92195     0.04453
      1798 67331.50588    61.70229    61.95935     0.04512
      1799 67385.37108    61.66893    65.36262     0.04407
      1800 67439.27938    61.63659    59.42456     0.04359
      1801 67493.23080    61.60530    60.07390     0.04212
      1802 67547.22539    61.57507    69.89465     0.04321
      1803 67601.26317    61.54593    59.22807     0.04285
      1804 67655.34418    61.51792    62.62112     0.04355
      1805 67709.46845    61.49109    58.62113     0.04442
      1806 67763.63603    61.46550    64.78952     0.04333
      1807 67817.84694    61.44122    65.27550     0.04477
      1808 67872.10122    61.41833    60.21215     0.04058
      1809 67926.39890    61.39691    70.01405     0.04337
      1810 67980.74002    61.36933    65.30358     0.04158
      1811 68035.12461    61.33339    63.88934     0.04184
      1812 68089.55271    61.31610    55.88536     0.04006
      1813 68144.02435    61.29330    69.10798     0.04384
      1814 68198.53957    61.28065    64.81284     0.04100
      1815 68253.09840    61.27150    57.51221     0.04113
      1816 68307.70088    61.26491    65.24649     0.04276
      1817 68362.34704    61.26101    63.96275     0.04182
      1818 68417.03692    61.26005    69.17649     0.04058
      1819 68471.77055    61.26229    69.31623     0.04357
      1820 68526.54796    61.26186    55.30252     0.03705
      1821 68581.36920    61.27019    67.11956     0.04011
      1822 68636.23430    61.28404    64.47250     0.04130
      1823 68691.14328    61.30258    68.78188     0.04209
      1824 68746.09620    61.32621    63.72962     0.04266
      1825 68801.09308    61.35545    62.39520     0.04324
      1826 68856.13395    61.39088    64.70858     0.03911
      1827 68911.21886    61.43327    68.42175     0.04207
      1828 68966.34783    61.48330    55.81864     0.03942
      1829 69021.52091    61.54185    62.67467     0.03914
      1830 69076.73813    61.60992    77.49979     0.04041
      1831 69131.99952    61.68866    65.12150     0.03944
      1832 69187.30512    61.77939    60.93791     0.04512
      1833 69242.65496    61.88365    66.50764     0.03714
      1834 69298.04909    62.00325    65.51099     0.03749
      1835 69353.48753    62.14027    56.06427     0.03782
      1836 69408.97032    62.29719    66.10858     0.03804
      1837 69464.49749    62.47695    54.03428     0.03830
      1838 69520.06909    62.68302    60.78754     0.04133
      1839 69575.68514    62.91961    63.19598     0.03835
      1840 69631.34569    63.19183    59.93375     0.04157
      1841 69687.05077    63.50580    65.88859     0.03863
      1842 69742.80041    63.86915    66.70503     0.03795
      1843 69798.59465    64.29145    65.74152     0.03921
      1844 69854.43353    64.78517    61.10863     0.03480
      1845 69910.31707    65.36740    66.22729     0.03789
      1846 69966.24533    66.06360    62.33739     0.03829
      1847 70022.21832    66.91574    62.94287     0.03768
      1848 70078.23610    67.99995    54.38477     0.03487
      1849 70134.29869    69.46242    77.71516     0.03659
      1850 70190.40613    71.56971    77.69647     0.03543
      1851 70246.55845    74.88123    76.31438     0.03442
      1852 70302.75570    80.32429    74.70872     0.03159
      1853 70358.99790    89.37965    92.49734     0.02877
      1854 70415.28510   104.13443   102.41275     0.03026
      1855 70471.61733   127.04926   129.87228     0.02504
      1856 70527.99462   160.29542   158.09159     0.02126
      1857 70584.41702   204.64573   200.29126     0.01728
      1858 70640.88455   258.18797   252.13517     0.01540
      1859 70697.39726   315.39824   324.59881     0.01263
      1860 70753.95518   367.21217   367.30550     0.01136
      1861 70810.55834   402.74687   386.34067     0.01081
      1862 70867.20679   413.13571   379.15698     0.01076
      1863 70923.90055   396.18055   352.67467     0.01106
      1864 70980.63967   357.99432   322.34582     0.01199
      1865 71037.42419   309.99777   267.64935     0.01412
      1866 71094.25412   264.37631   241.64530     0.01522
      1867 71151.12953   230.86502   215.91051     0.01643
      1868 71208.05043   215.17331   204.50274     0.01708
      1869 71265.01687   218.52169   217.28336     0.01685
      1870 71322.02889   237.86733   229.73011     0.01532
      1871 71379.08651   266.57183   268.85844     0.01399
      1872 71436.18978   295.50057   271.90736     0.01341
      1873 71493.33873   314.85785   288.70415     0.01299
      1874 71550.53340   317.11181   298.87130     0.01265
      1875 71607.77383   300.08503   288.81242     0.01264
      1876 71665.06005   267.62262   269.17764     0.01282
      1877 71722.39209   227.05417   240.14045     0.01418
      1878 71779.77001   185.85443   198.57157     0.01623
      1879 71837.19382   149.51134   148.44178     0.01942
      1880 71894.66358   120.81460   135.79312     0.02188
      1881 71952.17931   100.15822   116.81498     0.02460
      1882 72009.74105    86.38723    86.20238     0.02727
      1883 72067.34885    77.72462    81.90161     0.02793
      1884 72125.00273    72.45158    84.00984     0.02951
      1885 72182.70273    69.23926    71.76658     0.03012
      1886 72240.44889    67.20460    63.62160     0.03155
      1887 72298.24125    65.82361    70.64655     0.03352
      1888 72356.07984    64.81029    66.11679     0.03042
      1889 72413.96471    64.01629    65.02515     0.03083
      1890 72471.89588    63.36542    73.44938     0.03112
      1891 72529.87339    62.81695    61.91484     0.03089
      1892 72587.89729    62.34716    68.56720     0.03157
      1893 72645.96761    61.94062    60.89644     0.03388
      1894 72704.08438    61.58638    62.21894     0.03433
      1895 72762.24765    61.27609    65.95891     0.03089
      1896 72820.45745    61.00315    63.58186     0.03262
      1897 72878.71382    60.76230    68.58433     0.02989
      1898 72937.01679    60.54916    59.60143     0.02953
      1899 72995.36640    60.36009    56.85899     0.03455
      1900 73053.76269    60.19212    56.18451     0.03145
      1901 73112.20570    60.04272    61.25152     0.03225
      1902 73170.69547    59.90979    68.35202     0.03178
      1903 73229.23202    59.79153    58.11162     0.03584
      1904 73287.81541    59.68641    48.00188     0.03165
      1905 73346.44566    59.59321    53.05618     0.03430
      1906 73405.12282    59.51068    60.09392     0.03068
      1907 73463.84692    59.43787    61.17235     0.03187
      1908 73522.61800    59.37392    56.28419     0.03382
      1909 73581.43609    59.31809    58.80308     0.03327
      1910 73640.30124    59.26973    62.36540     0.03079
      1911 73699.21348    59.22829    62.61865     0.03313
      1912 73758.17285    59.19327    56.45703     0.03016
      1913 73817.17939    59.16420    44.59614     0.03473
      1914 73876.23313    59.14070    64.05953     0.03102
      1915 73935.33412    59.12240    59.61387     0.02869
      1916 73994.48239    59.10899    67.82149     0.03062
      1917 74053.67797    59.10018    62.80368     0.03253
      1918 74112.92091    59.09573    56.29036     0.03342
      1919 74172.21125    59.09540    59.33807     0.03034
      1920 74231.54902    59.09900    54.30605     0.02913
      1921 74290.93426    59.10632    74.54351     0.03103
      1922 74350.36701    59.11719    67.70789     0.02808
      1923 74409.84730    59.13147    62.54213     0.02978
      1924 74469.37518    59.14898    59.92980     0.03202
      1925 74528.95068    59.16960    53.02744     0.03108
      1926 74588.57384    59.29607    54.20430     0.02817
      1927 74648.24470    59.38483    63.24985     0.02983
      1928 74707.96329    59.44050    59.91843     0.03043
      1929 74767.72966    59.47684    57.90138     0.02675
      1930 74827.54385    59.51463    62.35335     0.02982
      1931 74887.40588    59.55492    56.31174     0.03173
      1932 74947.31581    59.59771    54.47978     0.03041
      1933 75007.27366    59.64293    57.70994     0.03134
      1934 75067.27948    59.69048    56.63683     0.02987
      1935 75127.33330    59.74032    63.50931     0.03151
      1936 75187.43517    59.79236    59.19831     0.02987
      1937 75247.58512    59.84656    64.15751     0.02834
      1938 75307.78319    59.90286    62.35378     0.02805
      1939 75368.02941    59.96120    67.89561     0.02760
      1940 75428.32384    60.02153    62.90117     0.02797
      1941 75488.66649    60.08381    58.40392     0.02825
      1942 75549.05743    60.14798    74.62783     0.02675
      1943 75609.49667    60.21399    67.00700     0.02996
      1944 75669.98427    60.28179    50.61664     0.02934
      1945 75730.52026    60.35134    58.93003     0.02798
      1946 75791.10467    60.42260    52.92786     0.02773
      1947 75851.73756    60.49552    47.32044     0.02795
      1948 75912.41895    60.57007    74.72954     0.02495
      1949 75973.14888    60.64620    60.71162     0.02689
      1950 76033.92740    60.72388    51.02097     0.02791
      1951 76094.75454    60.80305    56.19710     0.02621
      1952 76155.63035    60.88370    56.67150     0.02479
      1953 76216.55485    60.96577    58.62210     0.02391
      1954 76277.52810    61.04923    54.21678     0.03070
      1955 76338.55012    61.13404    68.38159     0.02646
      1956 76399.62096    61.22017    58.97153     0.02551
      1957 76460.74066    61.30758    55.39360     0.02345
      1958 76521.90925    61.34343    60.69072     0.02422
      1959 76583.12678    61.33850    60.34962     0.02414
      1960 76644.39328    61.42677    63.87908     0.02366
      1961 76705.70879    61.52185    57.24486     0.02391
      1962 76767.07336    61.61821    75.94389     0.02855
      1963 76828.48702    61.71557    69.96079     0.02694
      1964 76889.94981    61.81390    47.52371     0.02437
      1965 76951.46177    61.91317    56.11088     0.02351
      1966 77013.02294    62.01335    58.89090     0.02793
      1967 77074.63335    62.11443    57.78896     0.02484
      1968 77136.29306    62.21638    64.41218     0.02585
      1969 77198.00210    62.31917    52.73003     0.02544
      1970 77259.76050    62.36215    58.57936     0.02282
      1971 77321.56831    62.41914    57.66685     0.02175
      1972 77383.42556    62.52437    63.88667     0.02452
      1973 77445.33230    62.63527    56.28697     0.02522
      1974 77507.28857    62.74630    69.58304     0.02506
      1975 77569.29440    62.85609    47.34486     0.02465
      1976 77631.34983    62.96639    59.50533     0.02472
      1977 77693.45491    63.07733    73.79107     0.02469
      1978 77755.60968    63.18891    61.37478     0.02217
      1979 77817.81416    63.30113    67.03797     0.02456
      1980 77880.06842    63.41399    70.62053     0.02379
      1981 77942.37247    63.52748    59.56533     0.02455
      1982 78004.72637    63.64162    69.58442     0.02510
      1983 78067.13015    63.75640    70.87598     0.02193
      1984 78129.58385    63.87185    65.33349     0.02365
      1985 78192.08752    63.98800    67.43898     0.02316
      1986 78254.64119    64.10486    62.27184     0.02214
      1987 78317.24490    64.22245    67.29425     0.02576
      1988 78379.89870    64.34081    76.09543     0.02237
      1989 78442.60262    64.45998    73.50303     0.01979
      1990 78505.35670    64.58000    70.60773     0.02108
      1991 78568.16099    64.70094    52.93248     0.01921
      1992 78631.01552    64.82285    75.78847     0.02146
      1993 78693.92033    64.94581    68.07964     0.01944
      1994 78756.87546    65.06991    70.22465     0.02092
      1995 78819.88096    65.19525    70.81081     0.02053
      1996 78882.93687    65.32195    61.28138     0.02206
      1997 78946.04322    65.45016    60.14994     0.02097
      1998 79009.20005    65.58003    68.61465     0.02085
      1999 79072.40741    65.71171    71.49657     0.01978
      2000 79135.66534    65.84540    63.34012     0.02130
      2001 79198.97387    65.98131    73.43785     0.02076
      2002 79262.33305    66.11969    62.47672     0.02118
      2003 79325.74292    66.26083    56.27760     0.02115
      2004 79389.20351    66.40505    57.31651     0.01972
      2005 79452.71487    66.55271    72.01499     0.02012
      2006 79516.27705    66.70422    54.14408     0.01977
      2007 79579.89007    66.86007    76.79661     0.01937
      2008 79643.55398    67.02080    68.74104     0.02022
      2009 79707.26882    67.18702    65.91770     0.02020
      2010 79771.03464    67.35943    59.51874     0.01982
      2011 79834.85147    67.53886    72.30823     0.01835
      2012 79898.71935    67.72623    73.46914     0.02353
      2013 79962.63832    67.92276    70.65573     0.02349
      2014 80026.60843    68.12962    69.24896     0.02054
      2015 80090.62972    68.34824    78.35183     0.02177
      2016 80154.70222    68.58032    72.12178     0.02085
      2017 80218.82599    68.82785    71.19008     0.02297
      2018 80283.00105    69.09315    56.88646     0.01939
      2019 80347.22745    69.37899    64.61671     0.02088
      2020 80411.50523    69.68863    59.33743     0.02099
      2021 80475.83443    70.02595    64.03240     0.02381
      2022 80540.21510    70.39564    63.22306     0.02190
      2023 80604.64727    70.80340    59.05535     0.02031
      2024 80669.13099    71.25623    73.71019     0.02184
      2025 80733.66630    71.76305    74.47275     0.02202
      2026 80798.25323    72.33561    74.95847     0.02326
      2027 80862.89183    72.99039    51.33415     0.02307
      2028 80927.58214    73.75237    75.07587     0.02095
      2029 80992.32421    74.66234    56.73847     0.02052
      2030 81057.11807    75.79127    62.56750     0.02195
      2031 81121.96376    77.26635    69.33415     0.02019
      2032 81186.86133    79.31558    75.21845     0.02132
      2033 81251.81082    82.33643    80.27928     0.02025
      2034 81316.81227    86.98820    67.84859     0.02155
      2035 81381.86572    94.29202    89.17598     0.02015
      2036 81446.97122   105.69632    85.95502     0.01980
      2037 81512.12879   123.03596   121.08809     0.01767
      2038 81577.33850   148.29824   149.50935     0.01414
      2039 81642.60037   183.13435   178.12675     0.01256
      2040 81707.91445   228.13854   250.60593     0.00983
      2041 81773.28078   282.04320   320.97586     0.00809
      2042 81838.69940   341.09065   405.74477     0.00665
      2043 81904.17036   398.88287   458.45356     0.00589
      2044 81969.69370   447.00306   546.16280     0.00527
      2045 82035.26945   476.70764   561.30293     0.00509
      2046 82100.89767   481.69429   527.85083     0.00532
      2047 82166.57839   460.79488   527.87864     0.00530
      2048 82232.31165   418.54110   461.83685     0.00601
      2049 82298.09750   363.09773   389.06903     0.00691
      2050 82363.93598   303.32070   318.77576     0.00841
      2051 82429.82713   246.58674   264.31899     0.00901
      2052 82495.77099   197.75046   199.65648     0.01181
      2053 82561.76760   159.00376   158.07029     0.01423
      2054 82627.81702   130.35283   126.91475     0.01600
      2055 82693.91927   110.40757   111.50569     0.01841
      2056 82760.07441    97.18307   109.91424     0.01720
      2057 82826.28247    88.70403    92.94942     0.01858
      2058 82892.54349    83.33896    84.29120     0.02032
      2059 82958.85753    79.90260    69.03183     0.02156
      2060 83025.22461    77.61447    69.69296     0.02041
      2061 83091.64479    75.99889    72.27503     0.01987
      2062 83158.11811    74.78223    70.60294     0.02152
      2063 83224.64460    73.81266    66.64999     0.02306
      2064 83291.22432    73.00660    81.43715     0.01964
      2065 83357.85730    72.31688    77.45394     0.02010
      2066 83424.54358    71.71531    64.92598     0.02112
      2067 83491.28322    71.18361    77.36756     0.02404
      2068 83558.07625    70.70894    63.09368     0.02048
      2069 83624.92271    70.28171    63.56970     0.02001
      2070 83691.82265    69.89438    68.87699     0.02357
      2071 83758.77610    69.54091    70.14671     0.02014
      2072 83825.78312    69.21637    55.78686     0.02101
      2073 83892.84375    68.91668    58.35050     0.02046
      2074 83959.95803    68.63849    66.68342     0.02060
      2075 84027.12599    68.37904    66.53764     0.02004
      2076 84094.34769    68.13605    66.96877     0.02368
      2077 84161.62317    67.90780    69.23677     0.02162
      2078 84228.95247    67.69286    69.67883     0.01994
      2079 84296.33563    67.49024    75.64792     0.02263
      2080 84363.77270    67.29968    72.36558     0.02224
      2081 84431.26372    67.12182    57.73010     0.02452
      2082 84498.80873    66.95887    69.86205     0.02553
      2083 84566.40778    66.81557    65.72909     0.02139
      2084 84634.06090    66.70073    68.72364     0.02416
      2085 84701.76815    66.62932    62.35187     0.02015
      2086 84769.52957    66.62473    63.42042     0.02444
      2087 84837.34519    66.72034    59.25966     0.02195
      2088 84905.21507    66.95909    57.99756     0.02197
      2089 84973.13924    67.38894    71.44266     0.02275
      2090 85041.11775    68.05312    72.79312     0.02283
      2091 85109.15064    68.97474    76.73726     0.02098
      2092 85177.23796    70.13865    70.61417     0.02278
      2093 85245.37975    71.47520    73.72281     0.02085
      2094 85313.57606    72.85222    71.19639     0.02230
      2095 85381.82692    74.08168    80.26622     0.02085
      2096 85450.13238    74.94682    63.47142     0.02153
      2097 85518.49249    75.25495    64.31708     0.02144
      2098 85586.90728    74.90549    73.20688     0.02259
      2099 85655.37681    73.93402    71.98260     0.01906
      2100 85723.90111    72.49603    60.86254     0.02019
      2101 85792.48023    70.80494    78.49527     0.02423
      2102 85861.11421    69.06894    65.49533     0.02199
      2103 85929.80310    67.45082    73.79080     0.02231
      2104 85998.54695    66.05130    63.85581     0.02390
      2105 86067.34578    64.91018    65.59990     0.02174
      2106 86136.19966    64.01944    69.63216     0.02002
      2107 86205.10862    63.34171    62.43299     0.02286
      2108 86274.07271    62.82796    58.10780     0.02088
      2109 86343.09197    62.43058    56.94743     0.02298
      2110 86412.16644    62.11035    54.23635     0.02472
      2111 86481.29617    61.83858    61.39956     0.02395
      2112 86550.48121    61.59611    57.91570     0.02539
      2113 86619.72159    61.37105    52.31435     0.02339
      2114 86689.01737    61.15647    72.27157     0.02169
      2115 86758.36858    60.94842    65.98043     0.02149
      2116 86827.77528    60.74476    63.75305     0.02341
      2117 86897.23750    60.54429    65.25930     0.02338
      2118 86966.75529    60.34636    59.84190     0.02428
      2119 87036.32869    60.15057    50.11913     0.02148
      2120 87105.95776    59.95670    65.50477     0.02300
      2121 87175.64252    59.76463    57.86028     0.02226
      2122 87245.38304    59.57430    66.22361     0.02083
      2123 87315.17934    59.38569    63.92096     0.02291
      2124 87385.03149    59.19882    69.53727     0.02179
      2125 87454.93951    59.01373    55.47788     0.02545
      2126 87524.90346    58.83049    66.81718     0.02337
      2127 87594.92339    58.64922    69.13662     0.02349
      2128 87664.99933    58.47001    54.02618     0.02182
      2129 87735.13133    58.29300    59.28512     0.02289
      2130 87805.31943    58.11835    45.91100     0.02239
      2131 87875.56369    57.94621    56.33779     0.02269
      2132 87945.86414    57.77675    64.35847     0.02314
      2133 88016.22083    57.61015    53.61485     0.02509
      2134 88086.63380    57.44660    59.79642     0.02455
      2135 88157.10311    57.28631    44.78380     0.02256
      2136 88227.62879    57.12947    68.81255     0.02387
      2137 88298.21090    56.97632    61.41295     0.02291
      2138 88368.84947    56.82707    58.05183     0.02327
      2139 88439.54455    56.68193    64.27587     0.02354
      2140 88510.29618    56.54115    52.26265     0.02521
      2141 88581.10442    56.40495    58.88904     0.02379
      2142 88651.96930    56.27357    61.64569     0.02412
      2143 88722.89088    56.14725    55.20623     0.02322
      2144 88793.86919    56.02621    47.77574     0.02535
      2145 88864.90429    55.91070    48.42878     0.02495
      2146 88935.99621    55.80094    67.51040     0.02588
      2147 89007.14501    55.69717    51.60917     0.02491
      2148 89078.35072    55.59959    49.69644     0.02224
      2149 89149.61340    55.50842    62.28311     0.02631
      2150 89220.93309    55.42388    58.18591     0.02532
      2151 89292.30984    55.34614    57.65234     0.02280
      2152 89363.74369    55.27539    43.64334     0.02242
      2153 89435.23468    55.21179    53.47121     0.02346
      2154 89506.78287    55.14928    58.01059     0.02503
      2155 89578.38830    54.93227    56.94013     0.02467
      2156 89650.05101    54.88260    54.42736     0.02431
      2157 89721.77105    54.85185    46.88130     0.02731
      2158 89793.54846    54.82905    65.52639     0.02161
      2159 89865.38330    54.81381    47.86282     0.02290
      2160 89937.27561    54.80612    61.41688     0.02412
      2161 90009.22543    54.80591    44.93744     0.02705
      2162 90081.23281    54.81306    49.88674     0.02693
      2163 90153.29780    54.82743    48.69396     0.02446
      2164 90225.42044    54.84879    58.75137     0.02625
      2165 90297.60077    54.87687    48.67450     0.02361
      2166 90369.83885    54.91134    66.73954     0.02461
      2167 90442.13472    54.95177    52.52887     0.02782
      2168 90514.48843    54.99768    56.00423     0.02664
      2169 90586.90002    55.04850    53.79799     0.02258
      2170 90659.36954    55.10355    55.56175     0.02396
      2171 90731.89704    55.16208    61.95700     0.02581
      2172 90804.48256    55.22319    58.25386     0.02215
      2173 90877.12614    55.28591    57.29379     0.02176
      2174 90949.82784    55.34911    65.22667     0.02747
      2175 91022.58770    55.41153    46.41722     0.02140
      2176 91095.40577    55.47179    54.07338     0.02292
      2177 91168.28210    55.52832    57.09636     0.02441
      2178 91241.21672    55.57939    48.54072     0.02122
      2179 91314.20970    55.62309    55.57787     0.02446
      2180 91387.26107    55.65734    50.02635     0.02450
      2181 91460.37087    55.67980    55.87484     0.02444
      2182 91533.53917    55.68796    47.87034     0.02324
      2183 91606.76600    55.67904    53.52371     0.02556
      2184 91680.05142    55.65001    64.04876     0.02521
      2185 91753.39546    55.59757    45.91183     0.02403
      2186 91826.79817    55.51814    67.53640     0.02214
      2187 91900.25961    55.40782    67.81579     0.02415
      2188 91973.77982    55.26237    53.66667     0.02238
      2189 92047.35884    55.07723    49.06047     0.02278
      2190 92120.99673    54.84742    50.06024     0.02061
      2191 92194.69353    54.56761    53.93425     0.02258
      2192 92268.44928    54.23202    55.93404     0.02243
      2193 92342.26404    53.83442    56.15582     0.02460
      2194 92416.13785    53.36811    63.29425     0.02377
      2195 92490.07076    52.82588    42.77280     0.02146
      2196 92564.06282    52.19999    50.02657     0.02151
      2197 92638.11407    51.48212    47.31202     0.02263
      2198 92712.22456    50.66334    57.20212     0.02367
      2199 92786.39434    49.73410    43.19943     0.02646
      2200 92860.62346    48.68416    53.24790     0.02028
      2201 92934.91196    47.50257    43.83880     0.02261
      2202 93009.25988    46.17761    49.90701     0.02409

data_d6_MAPbI3_300K_p_02
_diffrn_radiation_wavelength     2.665
# 1 Angstrom bandwith with centre wavelengths of 2.665 Angstrom      
loop_
_pd_proc_point_id
_pd_meas_time_of_flight
_pd_proc_intensity_total
_pd_calc_intensity_total
_pd_proc_ls_weight
         1 26700.18170    70.20094    71.55732     0.44019
         2 26721.54185    70.22551    70.18807     0.44381
         3 26742.91908    70.24989    72.33331     0.44212
         4 26764.31342    70.27409    72.41411     0.44681
         5 26785.72487    70.29813    69.82436     0.46048
         6 26807.15345    70.32202    71.77896     0.45879
         7 26828.59917    70.34574    69.82144     0.47128
         8 26850.06205    70.36926    70.00697     0.47151
         9 26871.54210    70.39292    69.64923     0.47580
        10 26893.03933    70.41674    71.74272     0.48146
        11 26914.55377    70.44035    71.01200     0.47318
        12 26936.08541    70.46377    70.96552     0.48933
        13 26957.63428    70.48696    70.35889     0.49596
        14 26979.20038    70.50996    67.82393     0.51129
        15 27000.78374    70.53285    72.04289     0.50318
        16 27022.38437    70.55561    72.41114     0.50103
        17 27044.00228    70.57835    71.81251     0.51915
        18 27065.63748    70.60116    74.04348     0.51261
        19 27087.28999    70.62395    72.51063     0.52734
        20 27108.95982    70.64685    70.82273     0.54274
        21 27130.64699    70.67018    71.39140     0.53681
        22 27152.35151    70.69405    71.31573     0.54840
        23 27174.07339    70.71876    71.07255     0.56077
        24 27195.81265    70.74518    71.61549     0.56067
        25 27217.56930    70.77645    71.74893     0.57545
        26 27239.34335    70.82922    71.47174     0.58400
        27 27261.13483    70.92753    71.54632     0.59176
        28 27282.94374    71.01104    70.34939     0.60489
        29 27304.77009    71.10943    72.15981     0.60498
        30 27326.61391    71.53109    72.20716     0.62128
        31 27348.47520    72.17267    71.67746     0.62116
        32 27370.35398    72.28389    73.22477     0.63197
        33 27392.25026    72.14115    72.56249     0.64093
        34 27414.16406    71.88843    71.95317     0.66213
        35 27436.09539    71.67347    70.49806     0.66400
        36 27458.04427    71.56151    72.92192     0.67561
        37 27480.01070    71.49677    71.53591     0.67662
        38 27501.99471    71.55171    70.94852     0.69697
        39 27523.99631    71.56708    72.17423     0.68582
        40 27546.01551    71.50690    71.34694     0.70126
        41 27568.05232    71.57433    69.33852     0.72238
        42 27590.10676    71.74221    69.36435     0.74083
        43 27612.17885    71.72367    72.79105     0.73403
        44 27634.26859    71.63893    73.90520     0.74265
        45 27656.37600    71.61491    71.33406     0.76464
        46 27678.50110    71.66186    69.83010     0.78833
        47 27700.64391    71.79011    72.85895     0.77008
        48 27722.80442    72.07496    72.34555     0.78713
        49 27744.98266    73.07147    73.86163     0.78693
        50 27767.17865    76.75835    79.43948     0.75424
        51 27789.39239    81.95912    86.86542     0.71233
        52 27811.62391    82.16583    83.95410     0.74180
        53 27833.87321    81.17500    80.27465     0.76948
        54 27856.14030    86.85041    87.01533     0.73729
        55 27878.42522    93.64997    97.22627     0.67885
        56 27900.72796    91.17643    89.53558     0.71335
        57 27923.04854    91.93233    89.87324     0.71927
        58 27945.38698    97.11619    96.69432     0.68874
        59 27967.74329    92.55077    90.95941     0.72805
        60 27990.11748    84.68045    79.92285     0.81075
        61 28012.50958    79.70507    75.95850     0.85678
        62 28034.91958    77.17495    74.57707     0.87251
        63 28057.34752    75.34877    74.30937     0.90610
        64 28079.79340    73.92255    71.70653     0.93099
        65 28102.25723    73.03749    71.49925     0.94462
        66 28124.73904    72.52282    69.81690     0.95587
        67 28147.23883    72.23096    72.51170     0.96392
        68 28169.75662    72.07726    71.05412     0.97079
        69 28192.29243    72.00824    72.02717     0.96898
        70 28214.84626    72.00085    71.57767     0.97457
        71 28237.41814    72.06378    71.93144     0.98149
        72 28260.00807    72.24215    73.81906     0.98352
        73 28282.61608    72.93305    74.31171     0.98337
        74 28305.24217    76.11271    76.35420     0.95953
        75 28327.88636    81.92552    81.78169     0.92496
        76 28350.54867    82.08628    83.24216     0.92434
        77 28373.22911    78.36680    76.07598     0.97839
        78 28395.92770    76.29232    77.77233     0.98787
        79 28418.64444    76.55341    77.97857     0.98777
        80 28441.37935    76.50297    77.57420     0.98923
        81 28464.13246    75.89254    77.57001     1.00406
        82 28486.90376    77.80437    76.34694     1.02096
        83 28509.69329    80.00817    81.54456     0.99110
        84 28532.50104    79.30394    79.43963     1.00113
        85 28555.32704    77.61416    77.83366     1.02403
        86 28578.17130    76.40490    75.22114     1.05037
        87 28601.03384    77.15597    75.35382     1.06250
        88 28623.91467    76.73791    76.36788     1.07053
        89 28646.81380    74.88421    73.15990     1.10370
        90 28669.73125    73.60534    73.34941     1.11190
        91 28692.66703    72.93103    72.67490     1.12019
        92 28715.62117    72.57865    71.95028     1.13313
        93 28738.59367    72.40347    71.28395     1.13869
        94 28761.58454    72.33320    71.33484     1.17277
        95 28784.59381    72.33443    71.26110     1.15215
        96 28807.62148    72.39310    71.79642     1.15725
        97 28830.66758    72.51404    72.97671     1.15564
        98 28853.73211    72.73755    71.78074     1.15988
        99 28876.81510    73.15655    71.87324     1.17017
       100 28899.91655    74.24574    70.94467     1.19159
       101 28923.03649    79.41213    76.70696     1.13446
       102 28946.17491    96.14378    92.53058     0.99051
       103 28969.33185   108.73794   108.35432     0.88297
       104 28992.50732    98.89193    97.80519     0.95523
       105 29015.70133    86.92083    86.35271     1.05483
       106 29038.91389    80.96793    80.59800     1.11557
       107 29062.14502    81.05853    79.60822     1.12252
       108 29085.39473    90.24991    89.05160     1.03880
       109 29108.66305    96.45540   101.80348     0.93845
       110 29131.94998    89.02365    90.82215     1.02890
       111 29155.25554    81.14554    80.18059     1.13602
       112 29178.57974    76.93738    75.82945     1.17416
       113 29201.92261    74.78928    74.59406     1.19756
       114 29225.28415    73.64482    73.66926     1.20131
       115 29248.66437    73.02268    72.31943     1.23294
       116 29272.06331    72.67545    71.73510     1.23398
       117 29295.48096    72.47541    73.89102     1.21481
       118 29318.91734    72.35566    73.86631     1.21725
       119 29342.37247    72.27926    69.83685     1.26016
       120 29365.84637    72.23203    74.10637     1.23310
       121 29389.33905    72.20616    70.58486     1.26765
       122 29412.85052    72.19103    70.67720     1.27095
       123 29436.38080    72.17503    72.37779     1.26990
       124 29459.92991    72.14971    71.36568     1.27547
       125 29483.49785    72.14231    72.10779     1.27629
       126 29507.08465    72.14435    70.64307     1.29030
       127 29530.69032    72.15285    71.43593     1.30432
       128 29554.31487    72.16796    70.75172     1.30403
       129 29577.95832    72.18346    71.40989     1.30239
       130 29601.62069    72.21313    71.23908     1.33158
       131 29625.30198    72.28850    72.11680     1.30089
       132 29649.00222    72.55151    73.22798     1.31068
       133 29672.72143    73.81979    72.92380     1.30673
       134 29696.45960    76.58898    77.96243     1.26950
       135 29720.21677    77.10503    76.76501     1.27986
       136 29743.99294    75.17902    73.97681     1.33242
       137 29767.78814    73.68090    73.14488     1.33499
       138 29791.60237    72.93689    73.45153     1.34154
       139 29815.43565    72.58038    73.04206     1.35914
       140 29839.28800    72.40889    71.26356     1.39232
       141 29863.15943    72.32632    71.79070     1.38394
       142 29887.04996    72.29303    72.32775     1.39011
       143 29910.95960    72.31997    71.14897     1.40701
       144 29934.88837    72.48705    70.87051     1.42414
       145 29958.83628    72.64720    72.37294     1.40331
       146 29982.80335    72.55012    71.46057     1.41565
       147 30006.78959    72.41438    69.88439     1.45303
       148 30030.79502    72.34898    72.12417     1.43513
       149 30054.81966    72.32992    70.77646     1.45229
       150 30078.86351    72.33678    70.43276     1.47325
       151 30102.92660    72.36320    72.88338     1.44268
       152 30127.00894    72.41190    71.86387     1.46386
       153 30151.11055    72.49636    71.58539     1.48460
       154 30175.23144    72.66223    72.16437     1.47920
       155 30199.37162    73.22425    73.08046     1.46517
       156 30223.53112    75.84832    76.27524     1.42951
       157 30247.70995    81.35410    81.70915     1.36910
       158 30271.90811    82.67079    81.65168     1.37073
       159 30296.12564    80.69630    79.97062     1.42078
       160 30320.36254    80.22437    79.92210     1.40188
       161 30344.61883    78.10286    79.32870     1.42349
       162 30368.89453    75.43467    76.46061     1.46056
       163 30393.18964    73.86408    74.84165     1.48330
       164 30417.50419    73.10473    71.23912     1.53977
       165 30441.83820    72.74164    73.68834     1.53648
       166 30466.19167    72.57314    70.94940     1.55936
       167 30490.56462    72.50773    72.43634     1.55513
       168 30514.95707    72.47384    71.82327     1.56332
       169 30539.36904    72.45899    72.17900     1.56430
       170 30563.80053    72.45541    71.92582     1.56585
       171 30588.25157    72.46084    71.13301     1.58509
       172 30612.72218    72.47608    73.68093     1.59659
       173 30637.21235    72.52283    72.46956     1.59347
       174 30661.72212    72.57798    73.35159     1.59065
       175 30686.25150    72.63203    71.53402     1.60980
       176 30710.80050    72.69468    73.51648     1.59964
       177 30735.36914    72.77258    72.93938     1.60634
       178 30759.95744    72.87327    73.39868     1.62411
       179 30784.56540    73.02168    73.28219     1.63723
       180 30809.19306    73.24421    72.72053     1.65228
       181 30833.84041    73.60582    72.14711     1.63981
       182 30858.50748    74.34943    73.75686     1.62812
       183 30883.19429    76.98466    77.05491     1.58804
       184 30907.90084    85.93504    86.00416     1.47037
       185 30932.62716   101.91927   101.74802     1.31831
       186 30957.37327   122.17873   123.33407     1.12917
       187 30982.13917   126.27088   130.87731     1.08622
       188 31006.92488   107.41217   109.78880     1.25432
       189 31031.73042    90.96504    92.25324     1.42608
       190 31056.55580    83.05488    85.46017     1.51663
       191 31081.40105    82.29529    85.20792     1.52602
       192 31106.26617    95.46525    95.09574     1.41546
       193 31131.15118   122.67801   124.05315     1.15243
       194 31156.05610   125.91749   130.39957     1.10888
       195 31180.98094   106.32846   105.69888     1.31277
       196 31205.92573    90.44225    89.88826     1.49418
       197 31230.89047    81.83914    80.39479     1.61271
       198 31255.87518    77.95728    79.65291     1.63745
       199 31280.87988    76.23839    79.02215     1.65453
       200 31305.90459    74.91635    75.61743     1.69510
       201 31330.94931    73.96283    74.90537     1.71723
       202 31356.01407    73.42818    73.27777     1.74192
       203 31381.09888    73.15863    75.16756     1.72440
       204 31406.20376    73.04803    74.08935     1.75208
       205 31431.32872    73.01061    73.47819     1.77006
       206 31456.47379    73.00231    74.19001     1.75748
       207 31481.63897    73.00570    73.82717     1.75122
       208 31506.82428    73.06313    73.92717     1.74926
       209 31532.02974    73.18427    74.54460     1.75701
       210 31557.25536    73.39313    74.17161     1.74748
       211 31582.50116    73.76198    74.54393     1.74639
       212 31607.76716    74.64611    73.25617     1.77013
       213 31633.05338    78.38671    79.81843     1.67778
       214 31658.35982    90.03777    90.14163     1.52620
       215 31683.68651   102.52932   102.22710     1.38354
       216 31709.03346   110.46633   108.58814     1.32386
       217 31734.40069   122.39635   122.52991     1.20067
       218 31759.78821   116.10108   115.10430     1.27616
       219 31785.19604    98.10369    96.66847     1.45033
       220 31810.62419    85.97960    86.30152     1.57685
       221 31836.07269    80.48781    82.13510     1.63771
       222 31861.54155    80.39289    81.45713     1.64919
       223 31887.03078    92.42453    89.68102     1.54002
       224 31912.54041   117.78644   113.58088     1.29056
       225 31938.07044   121.05734   122.76047     1.20609
       226 31963.62090   102.32524   101.90870     1.39093
       227 31989.19179    87.46386    86.48283     1.59351
       228 32014.78315    79.90507    79.42296     1.67553
       229 32040.39497    76.29914    76.60446     1.72896
       230 32066.02729    74.55485    75.87676     1.74725
       231 32091.68011    73.68150    74.19043     1.76847
       232 32117.35346    73.21727    73.02220     1.77147
       233 32143.04734    72.95019    74.62417     1.78329
       234 32168.76178    72.79637    74.38548     1.78646
       235 32194.49679    72.69879    74.82944     1.78801
       236 32220.25238    72.63311    74.05323     1.79089
       237 32246.02858    72.57885    72.24287     1.78842
       238 32271.82541    72.52369    74.02494     1.77808
       239 32297.64287    72.49400    72.95708     1.79669
       240 32323.48098    72.47843    73.05007     1.78788
       241 32349.33977    72.47258    72.13890     1.82204
       242 32375.21924    72.47614    72.24309     1.82951
       243 32401.11941    72.49224    72.67363     1.82620
       244 32427.04031    72.52315    73.66879     1.82792
       245 32452.98194    72.64587    72.98277     1.83990
       246 32478.94433    73.41047    72.68703     1.82491
       247 32504.92748    75.28870    77.11678     1.76426
       248 32530.93143    76.00414    78.09925     1.75524
       249 32556.95617    74.82049    75.97742     1.79708
       250 32583.00174    73.70175    73.95872     1.83774
       251 32609.06814    73.16322    74.24712     1.85318
       252 32635.15539    73.04315    73.25842     1.85104
       253 32661.26352    73.53859    74.37296     1.83315
       254 32687.39253    76.32990    78.01193     1.79416
       255 32713.54244    81.68230    81.68260     1.73624
       256 32739.71327    82.44985    82.59758     1.70647
       257 32765.90504    78.65172    76.32060     1.79722
       258 32792.11777    75.62044    74.75203     1.83567
       259 32818.35146    74.12420    73.99746     1.85986
       260 32844.60614    73.34345    72.17924     1.89999
       261 32870.88183    72.94718    75.20855     1.85956
       262 32897.17853    72.89017    73.32289     1.88945
       263 32923.49628    72.95397    74.00425     1.86407
       264 32949.83507    72.82147    72.86269     1.89021
       265 32976.19494    72.63989    73.37816     1.90915
       266 33002.57590    72.53595    73.80941     1.89672
       267 33028.97796    72.49067    73.05811     1.90991
       268 33055.40114    72.47382    72.65428     1.92736
       269 33081.84546    72.47555    72.40947     1.92153
       270 33108.31094    72.49062    73.10350     1.91742
       271 33134.79759    72.52553    72.66700     1.93847
       272 33161.30543    72.57653    73.57736     1.91471
       273 33187.83447    72.64190    74.06636     1.92763
       274 33214.38474    72.73323    72.59192     1.94049
       275 33240.95625    72.86655    73.68710     1.92196
       276 33267.54901    73.07341    73.10726     1.94515
       277 33294.16305    73.43792    73.38292     1.94206
       278 33320.79838    74.27533    73.61730     1.93686
       279 33347.45502    77.84369    77.83670     1.87325
       280 33374.13298    92.24520    94.52764     1.63586
       281 33400.83229   116.45668   118.19824     1.36125
       282 33427.55296   119.36391   116.94148     1.37990
       283 33454.29500   102.02715    99.16846     1.56473
       284 33481.05843    87.82948    85.79204     1.75520
       285 33507.84328    80.80503    81.60786     1.81242
       286 33534.64955    78.30180    78.08817     1.89319
       287 33561.47727    77.18938    77.96092     1.89126
       288 33588.32646    75.89244    76.19996     1.94037
       289 33615.19712    75.88195    77.58044     1.90684
       290 33642.08928    80.58670    81.13094     1.83784
       291 33669.00295    89.45870    88.55906     1.73042
       292 33695.93815    90.10706    91.83104     1.69532
       293 33722.89490    83.39560    83.44859     1.81346
       294 33749.87322    78.03706    76.94651     1.93045
       295 33776.87311    75.24270    74.21777     1.99248
       296 33803.89461    73.88439    73.65935     2.00151
       297 33830.93773    73.23058    74.41700     1.98557
       298 33858.00248    72.89265    72.76392     2.02747
       299 33885.08888    72.73346    72.97247     2.01054
       300 33912.19695    72.65716    72.49693     2.02415
       301 33939.32671    72.60724    74.20555     2.01027
       302 33966.47817    72.56730    74.02006     2.02133
       303 33993.65135    72.56781    72.35919     2.04637
       304 34020.84627    72.58879    72.91821     2.04085
       305 34048.06295    72.62450    74.06793     2.03012
       306 34075.30140    72.67615    72.30767     2.05804
       307 34102.56164    72.75563    73.21291     2.04847
       308 34129.84369    72.87502    73.46469     2.03897
       309 34157.14757    73.02790    72.08257     2.05599
       310 34184.47328    73.23852    74.20938     1.99139
       311 34211.82086    73.54661    74.20529     1.99917
       312 34239.19032    74.03491    75.47945     1.98960
       313 34266.58167    74.96963    75.83857     1.98811
       314 34293.99494    78.06853    80.07503     1.93954
       315 34321.43013    92.07753    95.46729     1.69664
       316 34348.88728   124.90632   128.89462     1.36444
       317 34376.36639   145.37593   143.63377     1.24694
       318 34403.86748   141.62734   137.29162     1.29037
       319 34431.39057   139.61880   138.75486     1.28342
       320 34458.93569   127.20486   127.31332     1.37269
       321 34486.50284   108.54105   109.73631     1.55585
       322 34514.09204   101.42276   102.13373     1.64594
       323 34541.70331    98.99414   102.51185     1.64382
       324 34569.33667    91.29613    94.08816     1.76175
       325 34596.99214    84.82972    85.28792     1.89416
       326 34624.66974    87.29388    87.22036     1.85625
       327 34652.36947   102.39683   100.36688     1.67146
       328 34680.09137   110.64255   110.75764     1.55359
       329 34707.83544    99.96620   100.13315     1.67282
       330 34735.60171    87.40840    85.30242     1.89783
       331 34763.39019    80.19012    81.36278     1.97190
       332 34791.20090    76.56796    77.96276     2.02483
       333 34819.03386    74.71802    75.61236     2.08785
       334 34846.88909    73.74709    74.96903     2.08492
       335 34874.76660    73.22162    74.47460     2.10900
       336 34902.66642    72.91818    75.85870     2.09191
       337 34930.58855    72.70480    73.43290     2.12553
       338 34958.53302    72.56182    72.90975     2.12264
       339 34986.49985    72.46864    72.98142     2.14830
       340 35014.48905    72.39796    72.90570     2.14382
       341 35042.50064    72.36148    73.02113     2.14924
       342 35070.53464    72.34278    74.03631     2.13495
       343 35098.59107    72.32622    74.13283     2.12545
       344 35126.66994    72.32271    73.89864     2.13337
       345 35154.77127    72.33260    74.08593     2.12345
       346 35182.89509    72.36446    74.01009     2.13717
       347 35211.04141    72.41337    73.30708     2.15310
       348 35239.21024    72.46296    73.64190     2.14081
       349 35267.40161    72.56168    74.30239     2.12820
       350 35295.61553    72.74604    74.04158     2.13608
       351 35323.85202    73.16646    74.51865     2.12544
       352 35352.11110    74.98885    76.02493     2.08728
       353 35380.39279    82.64217    84.42125     1.95993
       354 35408.69711    96.13637    96.04036     1.76714
       355 35437.02407    98.63384    99.74629     1.72514
       356 35465.37368    89.45877    88.48505     1.87817
       357 35493.74598    81.41512    82.40163     1.98851
       358 35522.14098    77.10215    78.75910     2.04251
       359 35550.55869    74.94628    75.12496     2.10879
       360 35578.99914    73.85747    74.89482     2.12540
       361 35607.46234    73.32772    74.20560     2.12879
       362 35635.94831    73.13807    75.09288     2.12068
       363 35664.45707    73.29784    73.96743     2.13646
       364 35692.98863    74.79420    76.36129     2.09732
       365 35721.54302    81.20598    81.16204     2.00873
       366 35750.12026    91.42984    90.60143     1.84448
       367 35778.72035    92.24367    94.78297     1.77059
       368 35807.34333    84.90720    85.72062     1.91425
       369 35835.98921    78.89992    78.46972     2.03808
       370 35864.65800    75.70986    75.56970     2.09777
       371 35893.34972    74.09582    75.01201     2.09703
       372 35922.06440    73.25052    73.09239     2.13279
       373 35950.80205    72.79240    72.80117     2.12677
       374 35979.56270    72.53378    72.66516     2.15731
       375 36008.34635    72.37119    71.88624     2.17096
       376 36037.15302    72.27449    72.16888     2.15674
       377 36065.98275    72.21338    71.42758     2.15987
       378 36094.83553    72.17430    71.73837     2.15944
       379 36123.71140    72.15101    72.84745     2.15365
       380 36152.61037    72.13588    70.78853     2.15844
       381 36181.53246    72.12458    72.54481     2.14079
       382 36210.47768    72.11560    70.43552     2.17118
       383 36239.44607    72.10827    71.19801     2.16241
       384 36268.43762    72.10216    70.27801     2.17420
       385 36297.45237    72.09729    70.53107     2.18465
       386 36326.49034    72.09479    70.66342     2.17983
       387 36355.55153    72.09029    71.38116     2.16118
       388 36384.63597    72.09447    70.13110     2.17329
       389 36413.74368    72.09841    69.79683     2.16798
       390 36442.87467    72.11374    69.34697     2.19638
       391 36472.02897    72.13017    70.09100     2.16215
       392 36501.20660    72.14332    69.67033     2.15613
       393 36530.40756    72.15642    70.59552     2.18212
       394 36559.63189    72.17112    69.86901     2.18305
       395 36588.87959    72.19145    70.67302     2.16608
       396 36618.15070    72.21559    69.00905     2.17748
       397 36647.44522    72.24491    70.08836     2.17532
       398 36676.76317    72.28257    69.27107     2.18715
       399 36706.10458    72.33290    69.22756     2.17094
       400 36735.46947    72.40291    68.83775     2.18802
       401 36764.85784    72.50508    71.08737     2.15858
       402 36794.26973    72.66569    70.20505     2.14713
       403 36823.70514    72.96976    70.10544     2.14418
       404 36853.16411    73.83349    71.12482     2.12878
       405 36882.64664    77.26357    74.34489     2.05288
       406 36912.15276    87.33575    87.01999     1.83306
       407 36941.68248    98.33979    99.52976     1.65103
       408 36971.23583    97.36358    94.29663     1.71718
       409 37000.81281    95.49476    91.56850     1.74377
       410 37030.41346    99.69331   101.37308     1.62686
       411 37060.03779    97.00297    96.70369     1.67218
       412 37089.68583    87.91755    85.40008     1.84067
       413 37119.35757    81.35485    79.06771     1.94732
       414 37149.05306    79.30402    78.06405     1.94826
       415 37178.77230    79.46497    80.16630     1.91065
       416 37208.51532    78.07692    78.64061     1.92364
       417 37238.28213    75.76353    76.18258     1.98033
       418 37268.07276    74.16302    73.87526     2.03436
       419 37297.88722    73.29560    73.25256     2.04414
       420 37327.72553    72.82778    71.70574     2.05748
       421 37357.58771    72.57532    71.52123     2.05092
       422 37387.47378    72.43017    71.23402     2.04848
       423 37417.38376    72.34389    71.27035     2.04840
       424 37447.31766    72.29301    72.76995     2.01980
       425 37477.27552    72.26477    70.83469     2.03756
       426 37507.25734    72.25090    71.01971     2.03584
       427 37537.26314    72.23453    71.61450     2.02864
       428 37567.29295    72.22119    71.68157     2.01344
       429 37597.34679    72.22173    71.73659     2.02963
       430 37627.42467    72.22625    72.90326     1.99304
       431 37657.52661    72.23117    72.15422     1.99522
       432 37687.65263    72.25289    72.07983     2.00314
       433 37717.80275    72.28992    72.81037     1.98762
       434 37747.97699    72.34656    73.25357     1.94872
       435 37778.17537    72.43528    72.40133     1.98299
       436 37808.39791    72.62163    72.45314     1.97813
       437 37838.64463    73.17212    72.78139     1.96988
       438 37868.91555    74.47782    73.92031     1.94090
       439 37899.21068    77.11728    77.86263     1.88443
       440 37929.53005    84.22312    83.23191     1.76852
       441 37959.87367    94.13836    96.05628     1.59873
       442 37990.24157    94.33988    96.09270     1.60379
       443 38020.63376    87.15597    85.97254     1.73215
       444 38051.05027    83.35015    80.97706     1.79548
       445 38081.49111    84.98410    84.86845     1.74263
       446 38111.95630    84.86942    85.82037     1.72280
       447 38142.44587    80.69271    80.62689     1.79939
       448 38172.95983    76.92325    76.20992     1.87381
       449 38203.49819    74.80349    74.21611     1.89934
       450 38234.06099    73.68032    73.67611     1.92147
       451 38264.64824    73.06110    73.02197     1.92214
       452 38295.25996    72.70680    71.46765     1.94515
       453 38325.89617    72.49762    72.32572     1.94058
       454 38356.55688    72.37426    72.79994     1.91408
       455 38387.24213    72.30115    73.26182     1.93287
       456 38417.95192    72.25484    73.71928     1.89842
       457 38448.68629    72.22329    71.99789     1.92547
       458 38479.44523    72.20255    72.24432     1.91863
       459 38510.22879    72.18871    71.89215     1.91352
       460 38541.03697    72.17946    71.58453     1.94920
       461 38571.86980    72.16820    72.68479     1.92014
       462 38602.72730    72.15118    71.66793     1.92492
       463 38633.60948    72.14361    71.46073     1.92052
       464 38664.51637    72.16512    70.95628     1.91210
       465 38695.44798    72.18323    70.95915     1.92878
       466 38726.40434    72.19071    71.18117     1.93032
       467 38757.38546    72.20633    70.70928     1.92454
       468 38788.39137    72.23062    71.61451     1.91155
       469 38819.42208    72.25420    71.33431     1.91421
       470 38850.47762    72.27705    70.73076     1.91243
       471 38881.55800    72.30200    71.32699     1.88909
       472 38912.66325    72.34260    70.55733     1.90828
       473 38943.79338    72.39686    72.47043     1.87587
       474 38974.94842    72.45156    70.20702     1.88586
       475 39006.12837    72.51588    71.74568     1.87656
       476 39037.33328    72.59811    71.92062     1.85822
       477 39068.56314    72.70898    69.74757     1.89679
       478 39099.81799    72.86444    71.91829     1.84083
       479 39131.09785    73.09774    71.70427     1.85541
       480 39162.40273    73.49198    71.02462     1.85964
       481 39193.73265    74.52439    74.08852     1.80782
       482 39225.08764    79.15092    78.50473     1.72664
       483 39256.46771    93.99787    95.22599     1.47267
       484 39287.87288   113.00071   113.00516     1.28151
       485 39319.30318   113.90580   110.46928     1.30544
       486 39350.75862   104.44764   100.91521     1.39160
       487 39382.23923   104.01746   101.13563     1.39233
       488 39413.74502   106.36989   105.52449     1.33639
       489 39445.27602    99.13413    99.24897     1.40724
       490 39476.83224    91.09494    89.24434     1.51645
       491 39508.41370    93.59496    90.65905     1.49369
       492 39540.02043   105.82418   101.41275     1.36808
       493 39571.65245   107.95431   108.23124     1.29104
       494 39603.30977    96.87593    94.19388     1.42800
       495 39634.99242    86.94933    84.36545     1.56585
       496 39666.70041    82.16780    77.51294     1.63849
       497 39698.43377    79.55940    76.15419     1.65348
       498 39730.19252    77.30932    75.34956     1.67304
       499 39761.97667    76.04320    74.22601     1.68235
       500 39793.78626    77.46123    75.47423     1.64431
       501 39825.62128    84.84245    82.68350     1.53720
       502 39857.48178    94.22952    96.15293     1.37214
       503 39889.36777    93.34954    95.40059     1.36627
       504 39921.27926    85.71729    84.08083     1.50693
       505 39953.21628    79.73640    77.88709     1.57497
       506 39985.17886    76.48914    74.88490     1.61867
       507 40017.16700    74.75941    73.76203     1.62001
       508 40049.18073    73.78650    72.47262     1.65032
       509 40081.22008    73.22801    72.44271     1.63369
       510 40113.28505    72.90496    72.52696     1.61490
       511 40145.37568    72.71406    71.06758     1.64213
       512 40177.49198    72.59331    72.74204     1.61364
       513 40209.63398    72.50051    71.13307     1.63257
       514 40241.80168    72.44439    71.94674     1.60366
       515 40273.99513    72.41456    71.37371     1.60583
       516 40306.21432    72.39952    73.03599     1.58680
       517 40338.45929    72.40738    72.65640     1.57846
       518 40370.73006    72.44264    73.68756     1.56059
       519 40403.02664    72.46457    70.51307     1.59324
       520 40435.34907    72.48205    72.55735     1.55357
       521 40467.69735    72.49909    71.74430     1.54616
       522 40500.07150    72.50961    71.58526     1.55106
       523 40532.47156    72.52041    71.16455     1.54593
       524 40564.89754    72.54209    73.13533     1.51717
       525 40597.34946    72.57138    73.28043     1.50546
       526 40629.82734    72.60834    72.66836     1.51048
       527 40662.33120    72.65462    73.29107     1.47817
       528 40694.86106    72.71327    73.33244     1.46684
       529 40727.41695    72.78930    72.75879     1.48616
       530 40759.99888    72.89094    74.24143     1.44612
       531 40792.60688    73.03219    73.99275     1.45082
       532 40825.24097    73.23827    76.08226     1.43163
       533 40857.90116    73.55909    74.27378     1.43190
       534 40890.58748    74.13618    75.48561     1.40955
       535 40923.29995    75.86858    77.14834     1.37811
       536 40956.03859    83.81591    85.64612     1.28447
       537 40988.80342   107.93008   106.42980     1.07342
       538 41021.59447   137.38210   141.43461     0.84566
       539 41054.41174   137.39092   141.85642     0.83694
       540 41087.25527   115.43281   115.14062     0.99160
       541 41120.12508    96.74075    95.27461     1.13794
       542 41153.02118    86.18519    85.48153     1.25126
       543 41185.94359    80.47527    81.08488     1.28409
       544 41218.89235    77.27363    78.43699     1.31596
       545 41251.86746    75.43413    79.16240     1.30638
       546 41284.86896    74.36087    76.28194     1.33534
       547 41317.89685    73.72563    76.69211     1.32194
       548 41350.95117    73.34090    76.44754     1.33362
       549 41384.03193    73.09606    76.15328     1.30608
       550 41417.13915    72.93500    78.02911     1.30496
       551 41450.27287    72.83967    76.59823     1.30735
       552 41483.43308    72.78808    74.29094     1.31645
       553 41516.61983    72.75665    76.09298     1.30539
       554 41549.83313    72.73470    74.75546     1.30874
       555 41583.07299    72.71874    76.33804     1.28469
       556 41616.33945    72.70717    74.30454     1.31010
       557 41649.63252    72.69892    75.55540     1.28602
       558 41682.95223    72.69327    75.51687     1.29892
       559 41716.29859    72.65192    74.89906     1.28926
       560 41749.67163    72.62880    73.89154     1.29771
       561 41783.07137    72.62210    76.03045     1.26891
       562 41816.49782    72.62241    74.12526     1.29184
       563 41849.95102    72.62620    74.09634     1.27777
       564 41883.43098    72.63186    75.49035     1.25597
       565 41916.93773    72.63855    73.53452     1.28473
       566 41950.47128    72.64581    74.46517     1.25719
       567 41984.03165    72.65341    72.73167     1.27751
       568 42017.61888    72.66210    75.21930     1.26449
       569 42051.23298    72.67198    72.89677     1.26737
       570 42084.87396    72.68124    74.38903     1.24853
       571 42118.54186    72.69029    72.89099     1.28111
       572 42152.23669    72.69929    72.89507     1.28139
       573 42185.95848    72.70836    72.62844     1.25689
       574 42219.70725    72.71756    72.57200     1.26424
       575 42253.48302    72.72695    71.34903     1.27340
       576 42287.28580    72.73660    71.79684     1.25658
       577 42321.11563    72.74658    73.52503     1.25339
       578 42354.97252    72.75700    71.87144     1.25825
       579 42388.85650    72.76798    73.01832     1.24746
       580 42422.76759    72.77974    71.24628     1.24890
       581 42456.70580    72.79261    70.75844     1.25565
       582 42490.67117    72.80715    71.79845     1.24918
       583 42524.66370    72.82430    70.88170     1.24404
       584 42558.68343    72.84751    70.05774     1.25826
       585 42592.73038    72.88129    70.74628     1.24299
       586 42626.80456    72.94068    72.09989     1.23183
       587 42660.90601    73.15013    71.65248     1.22149
       588 42695.03473    73.92537    72.71232     1.20960
       589 42729.19076    75.45793    75.48875     1.16216
       590 42763.37411    76.38684    75.74810     1.15735
       591 42797.58481    75.73152    73.38235     1.19221
       592 42831.82288    74.62584    72.20432     1.18818
       593 42866.08834    73.88210    73.42418     1.16774
       594 42900.38121    73.47884    72.93288     1.17883
       595 42934.70151    73.26250    71.26477     1.18712
       596 42969.04928    73.14906    71.42257     1.18667
       597 43003.42452    73.09979    71.14793     1.18125
       598 43037.82725    73.09014    69.72442     1.19668
       599 43072.25752    73.09319    71.18227     1.18128
       600 43106.71532    73.10362    73.81917     1.13547
       601 43141.20069    73.13819    70.31914     1.15488
       602 43175.71366    73.24797    71.22583     1.14519
       603 43210.25423    73.75104    71.91378     1.14816
       604 43244.82243    75.58085    74.30077     1.12135
       605 43279.41829    78.70407    74.88690     1.09911
       606 43314.04182    79.80209    76.51770     1.08080
       607 43348.69306    77.98631    76.08376     1.08175
       608 43383.37201    75.91246    73.37188     1.09732
       609 43418.07871    74.65971    72.69313     1.10952
       610 43452.81317    73.98583    72.00773     1.11186
       611 43487.57542    73.61205    72.32483     1.11839
       612 43522.36548    73.40237    73.51868     1.09251
       613 43557.18337    73.28513    72.36741     1.08466
       614 43592.02912    73.22041    72.54943     1.08871
       615 43626.90274    73.18561    72.08113     1.08868
       616 43661.80427    73.16757    72.18534     1.08341
       617 43696.73371    73.15920    71.28862     1.07627
       618 43731.69110    73.15793    73.03463     1.06925
       619 43766.67645    73.16172    70.58166     1.07140
       620 43801.68979    73.16804    71.61836     1.07046
       621 43836.73114    73.17552    71.94255     1.05779
       622 43871.80053    73.18372    71.15750     1.04808
       623 43906.89797    73.19243    73.05481     1.03971
       624 43942.02349    73.20154    71.65991     1.03365
       625 43977.17710    73.21096    73.88725     1.02596
       626 44012.35885    73.22158    73.68687     1.01234
       627 44047.56873    73.23219    72.83191     1.01473
       628 44082.80679    73.24374    71.54728     1.02382
       629 44118.07303    73.25570    73.05033     1.01609
       630 44153.36749    73.26797    74.27347     0.99861
       631 44188.69019    73.28054    73.35457     1.00078
       632 44224.04114    73.29345    74.89878     0.96797
       633 44259.42037    73.30676    74.89450     0.97057
       634 44294.82791    73.32057    73.76131     0.98017
       635 44330.26377    73.33501    72.16709     0.98524
       636 44365.72798    73.35026    75.24844     0.96274
       637 44401.22056    73.36751    73.57369     0.97080
       638 44436.74154    73.38720    72.93326     0.96010
       639 44472.29093    73.40818    71.55072     0.96078
       640 44507.86877    73.43201    74.78113     0.93918
       641 44543.47506    73.46053    76.18396     0.92449
       642 44579.10984    73.49676    76.22186     0.92369
       643 44614.77313    73.54674    75.03288     0.93455
       644 44650.46495    73.63070    75.40144     0.92019
       645 44686.18532    73.87748    77.40400     0.89016
       646 44721.93427    74.87850    77.09195     0.90035
       647 44757.71182    77.59406    82.46557     0.85672
       648 44793.51798    80.89859    83.94804     0.83078
       649 44829.35280    81.27127    85.05635     0.83130
       650 44865.21628    79.00496    81.37663     0.86379
       651 44901.10845    76.75553    81.00331     0.84819
       652 44937.02934    75.38489    78.16070     0.87264
       653 44972.97896    74.63561    78.75495     0.86712
       654 45008.95735    74.22979    77.55948     0.87186
       655 45044.96451    74.02756    81.18146     0.84423
       656 45081.00049    74.02645    78.42799     0.85787
       657 45117.06529    74.49996    79.54343     0.85989
       658 45153.15894    75.76198    81.93268     0.83902
       659 45189.28146    76.89918    82.60338     0.81773
       660 45225.43289    76.57225    81.82607     0.82580
       661 45261.61324    75.52566    79.95235     0.84904
       662 45297.82253    74.72578    78.97114     0.84154
       663 45334.06079    74.27620    77.18063     0.86037
       664 45370.32803    74.03206    78.28068     0.86135
       665 45406.62430    73.89832    77.63988     0.85875
       666 45442.94960    73.82604    78.35367     0.84699
       667 45479.30396    73.78861    78.41340     0.84466
       668 45515.68740    73.77107    79.14982     0.83223
       669 45552.09995    73.76485    77.97152     0.84701
       670 45588.54163    73.76100    77.94527     0.85383
       671 45625.01246    73.76273    76.69694     0.85403
       672 45661.51247    73.76927    78.79619     0.84638
       673 45698.04168    73.77844    77.63392     0.85054
       674 45734.60011    73.78888    78.18959     0.84689
       675 45771.18779    73.79998    76.66832     0.86176
       676 45807.80475    73.81151    77.17866     0.85397
       677 45844.45099    73.82333    78.16125     0.84732
       678 45881.12655    73.83536    76.53831     0.86119
       679 45917.83145    73.84757    76.06539     0.86387
       680 45954.56572    73.85941    77.58384     0.85062
       681 45991.32937    73.87018    76.10163     0.85104
       682 46028.12243    73.88209    76.51536     0.85883
       683 46064.94493    73.89454    77.66768     0.84470
       684 46101.79689    73.90726    79.26184     0.83690
       685 46138.67832    73.92015    76.59528     0.85421
       686 46175.58927    73.93312    74.35475     0.86878
       687 46212.52974    73.94617    74.81258     0.86194
       688 46249.49976    73.95926    76.02247     0.84397
       689 46286.49936    73.97239    75.79842     0.85766
       690 46323.52856    73.98555    75.67821     0.85259
       691 46360.58738    74.00424    75.30654     0.85300
       692 46397.67585    74.02495    74.32418     0.85995
       693 46434.79399    74.08109    73.80309     0.86657
       694 46471.94183    74.14620    73.19479     0.86205
       695 46509.11938    74.19159    73.11620     0.85510
       696 46546.32668    74.23078    75.31296     0.84849
       697 46583.56374    74.37038    75.17631     0.85219
       698 46620.83059    74.54695    75.55363     0.84126
       699 46658.12726    74.67002    74.50922     0.84571
       700 46695.45376    74.77963    74.95373     0.84170
       701 46732.81012    74.88977    74.73403     0.84527
       702 46770.19637    75.00946    73.65922     0.85511
       703 46807.61253    75.14635    74.51381     0.84047
       704 46845.05862    75.31591    74.74843     0.83101
       705 46882.53466    75.51897    74.59912     0.83006
       706 46920.04069    75.76976    74.07255     0.83147
       707 46957.57672    76.09093    76.44806     0.79640
       708 46995.14278    76.51748    76.62880     0.80318
       709 47032.73890    77.13042    78.00887     0.79126
       710 47070.36509    78.07646    75.67321     0.80080
       711 47108.02138    80.04378    78.53799     0.78001
       712 47145.70780    86.01459    84.24843     0.73150
       713 47183.42436   103.46514   104.08504     0.61755
       714 47221.17110   139.05678   143.21133     0.47227
       715 47258.94804   179.38331   183.08445     0.38130
       716 47296.75520   192.00466   193.49792     0.36282
       717 47334.59260   192.89163   192.14282     0.36351
       718 47372.46028   244.21993   232.58348     0.30345
       719 47410.35825   337.11103   341.86163     0.21308
       720 47448.28653   356.20822   369.26969     0.19783
       721 47486.24516   282.44537   290.06243     0.24613
       722 47524.23416   199.92551   189.37227     0.36062
       723 47562.25355   147.07150   133.26854     0.48396
       724 47600.30335   119.31226   110.07532     0.55975
       725 47638.38359   107.53128   100.88559     0.60529
       726 47676.49430   102.79141    98.72140     0.61569
       727 47714.63549    97.01133    96.98554     0.61447
       728 47752.80720    90.56127    90.93489     0.65217
       729 47791.00945    87.66944    88.36647     0.66531
       730 47829.24225    93.33006    94.86742     0.61196
       731 47867.50565   111.03540   115.75840     0.52358
       732 47905.79965   129.27932   132.79129     0.46436
       733 47944.12429   129.91720   130.92096     0.46674
       734 47982.47959   118.89375   118.02054     0.50713
       735 48020.86558   107.44458   104.05526     0.56253
       736 48059.28227    97.01161    94.54818     0.60100
       737 48097.72969    88.55404    88.72044     0.63431
       738 48136.20788    82.98960    81.79775     0.67335
       739 48174.71684    79.78556    80.15618     0.67077
       740 48213.25662    77.97681    77.33306     0.67389
       741 48251.82722    76.87464    77.47253     0.66059
       742 48290.42868    76.08137    75.33924     0.65075
       743 48329.06103    75.61584    76.10488     0.65009
       744 48367.72428    75.34331    75.09561     0.63157
       745 48406.41846    75.18815    75.27497     0.63946
       746 48445.14359    75.09913    74.26831     0.64690
       747 48483.89971    75.04672    74.96497     0.66508
       748 48522.68683    75.01066    74.54793     0.66625
       749 48561.50497    74.98728    72.94187     0.68648
       750 48600.35418    74.97470    75.88375     0.67363
       751 48639.23446    74.96830    74.22312     0.67646
       752 48678.14585    74.96600    76.99783     0.67593
       753 48717.08837    74.96690    75.42159     0.67726
       754 48756.06204    74.96998    75.20493     0.67741
       755 48795.06689    74.94614    76.38083     0.65844
       756 48834.10294    74.93787    73.97975     0.67520
       757 48873.17022    74.93864    76.50316     0.65554
       758 48912.26876    74.94047    75.78002     0.66997
       759 48951.39857    74.94846    76.14219     0.65478
       760 48990.55969    74.95947    75.74494     0.66007
       761 49029.75214    74.97202    76.51045     0.63885
       762 49068.97594    74.98538    76.23033     0.64074
       763 49108.23112    74.99912    76.96200     0.64371
       764 49147.51771    75.03174    75.41536     0.63744
       765 49186.83572    75.08114    75.96034     0.64124
       766 49226.18519    75.11953    76.02669     0.62900
       767 49265.56614    75.15123    74.96058     0.63384
       768 49304.97859    75.18033    76.79003     0.62302
       769 49344.42257    75.20898    75.25083     0.63012
       770 49383.89811    75.30091    76.77836     0.61762
       771 49423.40523    75.44939    77.33825     0.61778
       772 49462.94396    75.56518    77.77071     0.60992
       773 49502.51431    75.66186    76.22177     0.61705
       774 49542.11632    75.75464    76.24758     0.60709
       775 49581.75001    75.85238    77.71334     0.60537
       776 49621.41541    75.96184    78.90463     0.60548
       777 49661.11255    76.08958    79.05070     0.59429
       778 49700.84144    76.24343    76.34659     0.60486
       779 49740.60211    76.43415    78.61209     0.58678
       780 49780.39459    76.67791    79.21098     0.58702
       781 49820.21891    77.00091    80.26081     0.57504
       782 49860.07508    77.45072    79.73177     0.56386
       783 49899.96314    78.15985    81.00182     0.56178
       784 49939.88311    79.82173    82.77249     0.55059
       785 49979.83502    85.63531    86.70504     0.52574
       786 50019.81889   102.75375   104.37408     0.45975
       787 50059.83474   131.99146   129.43548     0.38129
       788 50099.88261   151.70360   142.93242     0.34768
       789 50139.96252   144.62158   141.42919     0.35315
       790 50180.07449   128.10392   129.45060     0.38083
       791 50220.21855   130.42465   126.16535     0.38372
       792 50260.39472   178.91638   170.57822     0.29920
       793 50300.60304   269.62561   261.80865     0.20195
       794 50340.84352   323.08321   330.34705     0.16319
       795 50381.11619   286.19230   295.91184     0.18071
       796 50421.42109   212.52065   208.29227     0.24494
       797 50461.75822   154.71191   149.28378     0.32867
       798 50502.12763   120.50393   115.73957     0.39964
       799 50542.52933   101.52268   102.28548     0.44473
       800 50582.96336    90.96498    92.91040     0.47737
       801 50623.42973    85.02823    91.18298     0.48773
       802 50663.92847    81.63524    87.98564     0.49695
       803 50704.45961    79.64185    85.12040     0.51128
       804 50745.02318    78.41781    83.71771     0.51725
       805 50785.61920    77.64051    84.44805     0.50996
       806 50826.24770    77.16294    84.91455     0.50970
       807 50866.90869    76.87843    79.75902     0.52771
       808 50907.60222    76.69517    80.56303     0.53195
       809 50948.32830    76.56237    83.55427     0.51454
       810 50989.08696    76.45988    82.45663     0.51474
       811 51029.87823    76.34379    83.13385     0.51514
       812 51070.70214    76.25670    81.49519     0.52178
       813 51111.55870    76.19716    84.52386     0.50953
       814 51152.44795    76.15396    81.57613     0.52021
       815 51193.36990    76.12177    81.91083     0.51244
       816 51234.32460    76.09467    79.59238     0.53203
       817 51275.31206    75.94227    78.94945     0.54074
       818 51316.33231    75.86600    81.45238     0.52122
       819 51357.38537    75.83474    80.56933     0.52576
       820 51398.47128    75.82519    78.73746     0.53423
       821 51439.59006    75.82683    79.74498     0.54615
       822 51480.74173    75.83431    77.80360     0.53678
       823 51521.92633    75.84476    80.87932     0.52503
       824 51563.14387    75.85673    77.97634     0.53380
       825 51604.39438    75.86947    80.08314     0.52435
       826 51645.67790    75.88259    79.82277     0.52994
       827 51686.99444    75.89585    79.10379     0.53987
       828 51728.34404    75.90935    78.09288     0.54338
       829 51769.72671    75.92282    75.52594     0.54420
       830 51811.14249    75.93626    77.55209     0.54572
       831 51852.59141    75.94968    76.40919     0.54630
       832 51894.07348    75.96307    73.74917     0.55362
       833 51935.58874    75.97644    75.21031     0.55422
       834 51977.13721    75.98978    74.51423     0.54643
       835 52018.71892    76.00309    75.15592     0.55622
       836 52060.33389    76.01637    76.45380     0.54416
       837 52101.98216    76.02963    75.30596     0.54928
       838 52143.66375    76.04286    75.10293     0.55394
       839 52185.37868    76.05605    73.93270     0.55891
       840 52227.12698    76.06922    72.96498     0.56548
       841 52268.90868    76.08236    74.90093     0.54844
       842 52310.72381    76.09547    74.67118     0.54910
       843 52352.57239    76.10854    73.59497     0.56097
       844 52394.45445    76.12159    73.71697     0.55320
       845 52436.37001    76.13460    72.16462     0.56346
       846 52478.31911    76.14759    73.86309     0.55821
       847 52520.30176    76.16054    73.71927     0.55406
       848 52562.31800    76.17345    75.03072     0.54214
       849 52604.36786    76.18634    72.09189     0.56281
       850 52646.45135    76.19919    72.94696     0.54961
       851 52688.56851    76.21201    72.30215     0.54883
       852 52730.71937    76.22479    75.16264     0.53450
       853 52772.90394    76.23754    70.33757     0.55275
       854 52815.12227    76.25025    72.54034     0.54335
       855 52857.37436    76.26293    75.72095     0.53145
       856 52899.66026    76.27557    74.90240     0.53601
       857 52941.97999    76.28817    72.73868     0.53526
       858 52984.33357    76.30074    72.26087     0.54001
       859 53026.72104    76.31327    69.12052     0.54583
       860 53069.14242    76.32577    73.96229     0.52835
       861 53111.59773    76.33822    74.27128     0.52382
       862 53154.08701    76.35064    72.85627     0.53008
       863 53196.61028    76.36302    75.71686     0.51302
       864 53239.16757    76.37536    73.26022     0.52480
       865 53281.75890    76.38766    72.49526     0.52194
       866 53324.38431    76.39992    72.64231     0.51331
       867 53367.04382    76.41214    73.42430     0.51430
       868 53409.73745    76.42432    72.27255     0.51637
       869 53452.46524    76.43646    73.57817     0.51581
       870 53495.22721    76.45969    71.80857     0.50884
       871 53538.02340    76.48623    70.31687     0.52388
       872 53580.85381    76.50688    71.15641     0.51103
       873 53623.71850    76.52526    73.27002     0.49495
       874 53666.61747    76.54277    71.69234     0.50930
       875 53709.55077    76.56017    70.52195     0.49899
       876 53752.51841    76.57794    71.63184     0.50057
       877 53795.52042    76.59642    74.80869     0.49053
       878 53838.55684    76.61592    72.24363     0.49084
       879 53881.62768    76.63679    70.85659     0.48174
       880 53924.73299    76.65943    73.71417     0.48278
       881 53967.87277    76.68441    71.84476     0.48437
       882 54011.04707    76.71246    72.45240     0.48481
       883 54054.25591    76.74469    74.17153     0.47718
       884 54097.49931    76.78267    71.24389     0.48258
       885 54140.77731    76.82876    72.05075     0.47882
       886 54184.08993    76.88669    74.35082     0.46646
       887 54227.43721    76.96259    72.79420     0.47479
       888 54270.81916    77.06733    75.02854     0.46225
       889 54314.23581    77.22665    71.78177     0.47928
       890 54357.68720    77.55605    72.52723     0.46253
       891 54401.17335    78.64901    75.17451     0.45058
       892 54444.69429    82.38123    78.15610     0.43258
       893 54488.25004    91.04076    90.55839     0.39099
       894 54531.84064   102.04414    98.87837     0.36167
       895 54575.46612   106.15458   103.66958     0.34690
       896 54619.12649   100.63678    97.67784     0.36328
       897 54662.82179    92.07131    87.59575     0.39367
       898 54706.55205    85.52249    84.34012     0.40186
       899 54750.31729    81.65918    76.54925     0.42621
       900 54794.11754    79.55466    76.61582     0.43057
       901 54837.95284    78.41739    75.76849     0.42965
       902 54881.82320    77.79642    71.99540     0.44037
       903 54925.72866    77.45115    72.67466     0.43700
       904 54969.66924    77.25335    73.69797     0.43825
       905 55013.64498    77.13652    76.80180     0.42965
       906 55057.65589    77.06856    74.00817     0.43008
       907 55101.70202    77.03158    74.90288     0.43121
       908 55145.78338    77.01195    74.52431     0.42778
       909 55189.90001    77.00107    76.02460     0.41881
       910 55234.05193    76.99501    72.44533     0.42623
       911 55278.23917    76.99214    71.82100     0.43591
       912 55322.46176    76.99159    73.23289     0.42111
       913 55366.71973    76.99280    73.14127     0.42049
       914 55411.01310    76.99537    74.16231     0.41433
       915 55455.34191    76.99901    74.91168     0.41101
       916 55499.70619    77.00350    74.28542     0.41205
       917 55544.10595    77.00866    73.57375     0.41806
       918 55588.54124    77.01146    73.21986     0.41601
       919 55633.01207    77.00221    73.23943     0.41278
       920 55677.51848    77.00201    74.39436     0.40823
       921 55722.06049    77.00669    75.19780     0.39908
       922 55766.63814    77.01373    76.32991     0.39940
       923 55811.25145    77.02191    71.22293     0.40662
       924 55855.90045    77.03063    71.59465     0.40946
       925 55900.58518    77.03960    74.63320     0.39412
       926 55945.30564    77.04865    74.74783     0.38997
       927 55990.06189    77.05771    72.04826     0.40230
       928 56034.85394    77.06675    74.35107     0.38781
       929 56079.68182    77.07574    75.21983     0.38338
       930 56124.54557    77.08469    73.74545     0.39346
       931 56169.44520    77.09358    74.16784     0.38438
       932 56214.38076    77.10240    72.74061     0.39312
       933 56259.35226    77.11115    74.37011     0.37029
       934 56304.35974    77.11985    76.99443     0.36866
       935 56349.40323    77.12847    75.53054     0.38053
       936 56394.48276    77.13704    74.74262     0.37502
       937 56439.59834    77.14554    74.36264     0.36403
       938 56484.75002    77.15397    78.56875     0.36139
       939 56529.93782    77.16234    78.01934     0.35954
       940 56575.16177    77.17065    76.27099     0.35990
       941 56620.42190    77.17888    77.62865     0.36534
       942 56665.71824    77.18706    78.27842     0.35916
       943 56711.05081    77.22966    76.57677     0.36071
       944 56756.41965    77.27933    79.28860     0.35261
       945 56801.82479    77.33868    76.85093     0.35848
       946 56847.26625    77.37969    80.13944     0.34869
       947 56892.74406    77.41268    76.23592     0.36188
       948 56938.25826    77.44288    77.39336     0.34883
       949 56983.80886    77.47311    78.76718     0.34210
       950 57029.39591    77.56027    77.67872     0.35265
       951 57075.01943    77.63464    80.12571     0.34468
       952 57120.67944    77.69885    83.62517     0.33336
       953 57166.37599    77.76225    78.32201     0.34570
       954 57212.10909    77.83029    83.38719     0.33028
       955 57257.87877    77.90703    79.06885     0.34627
       956 57303.68508    77.99635    77.19838     0.34312
       957 57349.52803    78.10268    82.11622     0.33371
       958 57395.40765    78.23181    82.16147     0.33702
       959 57441.32397    78.39187    80.06491     0.33993
       960 57487.27703    78.59476    81.64069     0.33594
       961 57533.26685    78.85870    83.71512     0.32924
       962 57579.29347    79.21298    82.26312     0.33101
       963 57625.35690    79.70927    81.84616     0.33009
       964 57671.45719    80.47673    84.21342     0.32873
       965 57717.59435    82.08306    87.08936     0.31618
       966 57763.76843    87.11002    86.13579     0.31857
       967 57809.97944   102.99492   100.96380     0.27541
       968 57856.22743   138.95620   136.89387     0.22301
       969 57902.51241   187.79847   181.99599     0.17626
       970 57948.83442   215.02584   202.28579     0.16080
       971 57995.19349   200.27933   193.03011     0.16558
       972 58041.58964   166.25816   164.52974     0.19131
       973 58088.02291   144.68981   144.89757     0.21060
       974 58134.49333   150.71991   148.65880     0.20703
       975 58181.00093   175.24866   167.45979     0.18709
       976 58227.54573   187.49677   180.31273     0.17774
       977 58274.12776   170.72952   165.14188     0.19275
       978 58320.74707   140.20833   138.66359     0.22293
       979 58367.40366   114.24135   112.28109     0.26531
       980 58414.09759    98.02870   101.58946     0.28944
       981 58460.82886    89.11871    93.92497     0.30307
       982 58507.59753    84.36429    90.29393     0.31794
       983 58554.40361    81.79291    85.07827     0.33442
       984 58601.24713    80.35353    87.49390     0.33209
       985 58648.12813    79.50744    83.68011     0.33553
       986 58695.04663    78.98739    84.19107     0.33565
       987 58742.00267    78.66279    81.43281     0.33572
       988 58788.99627    78.45617    83.48203     0.33106
       989 58836.02747    78.31518    82.42326     0.33698
       990 58883.09629    78.21014    83.14634     0.33976
       991 58930.20276    78.12727    84.43633     0.33970
       992 58977.34693    78.06010    84.50137     0.33794
       993 59024.52880    78.00483    81.05491     0.34749
       994 59071.74843    77.95887    79.11424     0.35394
       995 59119.00583    77.88462    82.39910     0.34842
       996 59166.30103    77.79196    79.22298     0.35669
       997 59213.63407    77.74273    81.76168     0.34738
       998 59261.00498    77.71349    77.24638     0.36003
       999 59308.41378    77.69481    81.58695     0.34216
      1000 59355.86051    77.68197    82.08168     0.34671
      1001 59403.34520    77.63854    79.00301     0.35811
      1002 59450.86788    77.59105    83.52254     0.34340
      1003 59498.42857    77.57117    79.65157     0.36059
      1004 59546.02732    77.56341    81.31092     0.35577
      1005 59593.66414    77.56145    79.41003     0.35310
      1006 59641.33907    77.56228    78.44875     0.36588
      1007 59689.05214    77.56437    78.54396     0.35937
      1008 59736.80338    77.56702    77.91923     0.37003
      1009 59784.59282    77.56990    75.12454     0.36511
      1010 59832.42050    77.57284    82.81458     0.35142
      1011 59880.28644    77.57578    77.70424     0.36695
      1012 59928.19066    77.57869    80.53027     0.36174
      1013 59976.13322    77.58151    77.02707     0.37245
      1014 60024.11412    77.58425    79.25033     0.36796
      1015 60072.13341    77.58691    79.29689     0.36379
      1016 60120.19112    77.58949    77.39384     0.36648
      1017 60168.28727    77.59198    77.00613     0.36729
      1018 60216.42190    77.59440    78.26776     0.36695
      1019 60264.59504    77.59672    74.65191     0.37519
      1020 60312.80672    77.59897    75.77678     0.36845
      1021 60361.05696    77.60113    77.60959     0.37132
      1022 60409.34581    77.60321    80.00144     0.36254
      1023 60457.67329    77.60520    80.60609     0.35960
      1024 60506.03942    77.60711    76.05256     0.36318
      1025 60554.44426    77.60894    76.06355     0.36595
      1026 60602.88781    77.61068    76.99726     0.36446
      1027 60651.37012    77.61234    74.92779     0.36951
      1028 60699.89122    77.61391    75.26930     0.37006
      1029 60748.45113    77.61540    78.69561     0.35367
      1030 60797.04989    77.61680    78.73549     0.36171
      1031 60845.68753    77.61812    75.65408     0.36715
      1032 60894.36408    77.61936    77.72913     0.35894
      1033 60943.07957    77.62051    79.88459     0.35859
      1034 60991.83404    77.62157    76.83370     0.35833
      1035 61040.62750    77.62255    75.07969     0.36583
      1036 61089.46001    77.62344    75.93191     0.35867
      1037 61138.33157    77.62425    73.24847     0.37597
      1038 61187.24224    77.62498    75.72070     0.36510
      1039 61236.19203    77.62562    75.35979     0.35949
      1040 61285.18099    77.62617    76.88004     0.35586
      1041 61334.20913    77.62664    77.77232     0.35102
      1042 61383.27650    77.62702    75.09567     0.36179
      1043 61432.38312    77.62731    75.39006     0.35627
      1044 61481.52903    77.62752    75.05473     0.35078
      1045 61530.71425    77.62765    76.46733     0.35669
      1046 61579.93882    77.62768    73.84078     0.36242
      1047 61629.20277    77.62764    80.40794     0.34072
      1048 61678.50613    77.62750    74.49066     0.35762
      1049 61727.84894    77.62728    77.46500     0.34205
      1050 61777.23122    77.62698    74.27230     0.35528
      1051 61826.65300    77.62658    75.65025     0.34777
      1052 61876.11432    77.62610    77.57758     0.34623
      1053 61925.61522    77.62554    76.62593     0.34868
      1054 61975.15571    77.65571    74.96116     0.34778
      1055 62024.73583    77.71726    75.72638     0.34659
      1056 62074.35562    77.76528    79.69214     0.33700
      1057 62124.01511    77.80468    75.95888     0.34060
      1058 62173.71432    77.84057    79.91994     0.32995
      1059 62223.45329    77.86841    80.01249     0.32805
      1060 62273.23205    77.89401    74.37116     0.33792
      1061 62323.05064    77.92040    74.45271     0.33211
      1062 62372.90908    77.94940    73.78622     0.34074
      1063 62422.80741    77.98232    77.29051     0.33380
      1064 62472.74565    78.03602    73.38323     0.34343
      1065 62522.72385    78.09547    77.46567     0.32420
      1066 62572.74203    78.15709    77.15967     0.32619
      1067 62622.80022    78.22660    74.96743     0.33210
      1068 62672.89846    78.30859    79.28019     0.32509
      1069 62723.03678    78.40790    74.14055     0.33682
      1070 62773.21521    78.53060    74.26700     0.32415
      1071 62823.43378    78.68510    73.40537     0.33496
      1072 62873.69253    78.88363    75.91780     0.32235
      1073 62923.99148    79.14482    72.95337     0.32673
      1074 62974.33068    79.49863    77.89789     0.32023
      1075 63024.71014    80.00212    76.49309     0.32472
      1076 63075.12991    80.82569    78.58264     0.31509
      1077 63125.59001    82.69994    81.74232     0.31232
      1078 63176.09048    88.33354    88.43423     0.28628
      1079 63226.63136   104.09498   102.97911     0.25210
      1080 63277.21266   136.78391   135.76411     0.20603
      1081 63327.83443   181.65893   173.94569     0.16526
      1082 63378.49670   215.65177   206.26439     0.14201
      1083 63429.19950   220.57420   207.22058     0.14134
      1084 63479.94286   201.66300   195.38086     0.14966
      1085 63530.72681   170.98973   168.43763     0.16903
      1086 63581.55139   139.61794   145.64587     0.19055
      1087 63632.41663   115.56255   117.28485     0.22997
      1088 63683.32257   102.10561   107.39748     0.24286
      1089 63734.26922    99.39429   103.46544     0.24638
      1090 63785.25664   105.23533   114.72059     0.22968
      1091 63836.28485   113.02161   117.94011     0.22252
      1092 63887.35387   113.92990   117.64079     0.22278
      1093 63938.46376   106.57862   108.74709     0.23472
      1094 63989.61453    96.62850    98.13847     0.25776
      1095 64040.80622    88.76611    90.78374     0.27164
      1096 64092.03886    83.98765    80.05250     0.29547
      1097 64143.31249    81.40901    83.85218     0.28753
      1098 64194.62714    80.05166    78.06465     0.29935
      1099 64245.98285    79.31846    78.59467     0.29831
      1100 64297.37963    78.90410    77.35963     0.29608
      1101 64348.81754    78.66150    76.72010     0.30000
      1102 64400.29659    78.51878    78.17688     0.30194
      1103 64451.81683    78.43602    76.35455     0.30078
      1104 64503.37828    78.39035    78.17841     0.29379
      1105 64554.98098    78.37066    74.31257     0.30246
      1106 64606.62497    78.37318    75.72152     0.29904
      1107 64658.31027    78.39811    80.18959     0.29349
      1108 64710.03692    78.44825    77.75050     0.29605
      1109 64761.80495    78.46402    75.95418     0.29900
      1110 64813.61439    78.55054    78.86914     0.28630
      1111 64865.46528    78.70096    76.94438     0.28922
      1112 64917.35765    78.94079    81.72559     0.28180
      1113 64969.29154    79.34288    79.72617     0.29038
      1114 65021.26697    80.13540    80.67855     0.28118
      1115 65073.28399    82.33482    81.20601     0.28218
      1116 65125.34261    89.16277    88.76932     0.25952
      1117 65177.44289   106.47277   109.76491     0.22257
      1118 65229.58484   137.15418   135.96712     0.18672
      1119 65281.76851   170.25202   175.28371     0.14891
      1120 65333.99393   182.58999   183.26625     0.14432
      1121 65386.26112   166.59160   165.74734     0.15694
      1122 65438.57013   137.73080   138.63586     0.18201
      1123 65490.92099   112.43704   111.59725     0.21724
      1124 65543.31372    96.30246    96.55716     0.24225
      1125 65595.74837    87.54703    89.35948     0.25218
      1126 65648.22497    83.06301    85.31850     0.26158
      1127 65700.74355    80.75138    77.40250     0.27960
      1128 65753.30415    79.51322    80.10758     0.26871
      1129 65805.90679    78.81604    79.63216     0.26955
      1130 65858.55152    78.40962    77.22468     0.27859
      1131 65911.23836    78.16257    79.05116     0.27577
      1132 65963.96735    78.00014    75.71645     0.28256
      1133 66016.73852    77.88255    80.01977     0.27294
      1134 66069.55191    77.79101    79.01557     0.27861
      1135 66122.40755    77.71676    78.53102     0.27309
      1136 66175.30548    77.65507    79.37753     0.27359
      1137 66228.24572    77.60287    77.80100     0.27160
      1138 66281.22832    77.55802    72.32343     0.28381
      1139 66334.25330    77.51893    80.72066     0.26851
      1140 66387.32071    77.48443    75.37820     0.26886
      1141 66440.43056    77.45364    75.17072     0.27102
      1142 66493.58291    77.42585    74.00344     0.27788
      1143 66546.77777    77.40054    77.30723     0.27005
      1144 66600.01520    77.37727    75.29852     0.27134
      1145 66653.29521    77.35572    75.93843     0.27261
      1146 66706.61784    77.33559    79.12831     0.26613
      1147 66759.98314    77.30201    79.54448     0.26116
      1148 66813.39112    77.23305    78.64447     0.26634
      1149 66866.84184    77.19433    76.77704     0.26655
      1150 66920.33531    77.17216    76.06058     0.27044
      1151 66973.87158    77.15734    73.61040     0.27057
      1152 67027.45068    77.14574    74.88337     0.26916
      1153 67081.07264    77.13553    80.03441     0.25312
      1154 67134.73750    77.12589    80.82676     0.25335
      1155 67188.44529    77.11647    78.06457     0.25452
      1156 67242.19604    77.10709    78.30669     0.25839
      1157 67295.98980    77.09774    77.12219     0.26259
      1158 67349.82659    77.08830    80.25245     0.25087
      1159 67403.70645    77.07880    80.87218     0.25129
      1160 67457.62942    77.06921    78.17672     0.25359
      1161 67511.59552    77.05954    80.30997     0.25507
      1162 67565.60480    77.04980    78.74955     0.25290
      1163 67619.65728    77.03999    80.11550     0.25184
      1164 67673.75301    77.03009    77.39968     0.25320
      1165 67727.89201    77.02012    74.18911     0.25605
      1166 67782.07432    77.01007    79.96726     0.24724
      1167 67836.29998    76.99995    78.55938     0.24452
      1168 67890.56902    76.98975    78.73524     0.24890
      1169 67944.88148    76.97948    79.01098     0.24681
      1170 67999.23738    76.96913    79.83934     0.24839
      1171 68053.63677    76.95870    77.63780     0.24228
      1172 68108.07968    76.94820    75.27496     0.25346
      1173 68162.56615    76.93763    77.40051     0.25138
      1174 68217.09620    76.92698    78.24209     0.24179
      1175 68271.66987    76.91625    79.77264     0.24502
      1176 68326.28721    76.90546    78.91995     0.24207
      1177 68380.94824    76.89459    85.04074     0.23230
      1178 68435.65300    76.88364    80.98683     0.24054
      1179 68490.40152    76.87262    81.88209     0.24053
      1180 68545.19384    76.86153    76.76529     0.24933
      1181 68600.03000    76.85037    75.99795     0.24593
      1182 68654.91002    76.83914    80.64163     0.23773
      1183 68709.83395    76.82783    75.87197     0.24310
      1184 68764.80182    76.81645    82.05980     0.23560
      1185 68819.81366    76.80500    73.83597     0.24447
      1186 68874.86951    76.79348    81.03322     0.23590
      1187 68929.96941    76.78188    83.23391     0.23193
      1188 68985.11338    76.77022    76.54135     0.24170
      1189 69040.30147    76.75848    78.67596     0.24250
      1190 69095.53371    76.74668    81.72235     0.23034
      1191 69150.81014    77.09960    76.72105     0.23978
      1192 69206.13079    77.37068    78.26559     0.23177
      1193 69261.49569    77.51716    78.26249     0.23626
      1194 69316.90489    77.61285    77.83723     0.24205
      1195 69372.35841    77.69067    82.16725     0.23361
      1196 69427.85630    77.76574    79.95880     0.23550
      1197 69483.39858    77.84555    76.73919     0.23785
      1198 69538.98530    77.93441    81.87655     0.22671
      1199 69594.61649    78.03547    82.63247     0.22374
      1200 69650.29218    78.15155    76.99096     0.23575
      1201 69706.01242    78.28599    79.44662     0.22815
      1202 69761.77723    78.44278    77.27047     0.23620
      1203 69817.58665    78.87586    81.22931     0.22727
      1204 69873.44072    79.30601    83.67236     0.22027
      1205 69929.33947    79.68241    81.89069     0.22357
      1206 69985.28294    80.07205    81.57189     0.22213
      1207 70041.27117    80.51405    79.85237     0.22709
      1208 70097.30419    81.03906    80.04841     0.22264
      1209 70153.38203    81.67947    82.51772     0.21551
      1210 70209.50474    82.47656    80.27494     0.22387
      1211 70265.67234    83.48831    82.02178     0.22308
      1212 70321.88488    84.80083    82.31242     0.21777
      1213 70378.14239    86.55199    84.56590     0.21386
      1214 70434.44490    89.01307    86.48325     0.20992
      1215 70490.79246    93.00520    88.95558     0.20292
      1216 70547.18509   101.74671    95.85607     0.18945
      1217 70603.62284   126.19602   120.94855     0.16164
      1218 70660.10574   192.05582   184.32685     0.11420
      1219 70716.63382   332.31672   331.28936     0.06765
      1220 70773.20713   545.83623   545.65006     0.04250
      1221 70829.82569   747.31737   719.48065     0.03255
      1222 70886.48955   804.58337   751.63465     0.03126
      1223 70943.19875   689.05626   650.34600     0.03592
      1224 70999.95330   496.23538   496.63493     0.04593
      1225 71056.75327   325.57132   348.02919     0.06421
      1226 71113.59867   215.09945   251.09089     0.08488
      1227 71170.48955   156.65208   192.76448     0.10790
      1228 71227.42594   132.34026   168.29261     0.12161
      1229 71284.40788   135.73713   168.78363     0.12166
      1230 71341.43541   178.27860   194.56391     0.10739
      1231 71398.50856   279.61992   287.12507     0.07557
      1232 71455.62736   433.52639   422.78955     0.05289
      1233 71512.79186   572.26180   544.58594     0.04175
      1234 71570.00210   601.68563   574.15086     0.03976
      1235 71627.25810   509.46930   490.07095     0.04596
      1236 71684.55991   367.92158   358.10402     0.06154
      1237 71741.90755   246.23728   241.52669     0.08693
      1238 71799.30108   168.21833   170.50220     0.11887
      1239 71856.74052   125.92731   130.59703     0.14847
      1240 71914.22591   104.59661   109.64952     0.16805
      1241 71971.75729    93.81585    98.43251     0.18580
      1242 72029.33470    88.10985    92.80537     0.19140
      1243 72086.95817    84.90512    88.35828     0.20062
      1244 72144.62773    82.98791    91.81079     0.19415
      1245 72202.34344    81.74740    91.40300     0.19282
      1246 72260.10531    80.86982    85.91555     0.19893
      1247 72317.91340    80.20051    85.68687     0.19977
      1248 72375.76773    79.66522    84.37916     0.20803
      1249 72433.66834    79.22540    86.21390     0.20466
      1250 72491.61527    78.85763    82.70723     0.20275
      1251 72549.60857    78.39496    77.26906     0.21395
      1252 72607.64825    77.77979    80.02866     0.20650
      1253 72665.73437    77.42671    79.35123     0.20636
      1254 72723.86696    77.19824    78.96063     0.20946
      1255 72782.04605    77.03127    78.11230     0.21463
      1256 72840.27169    76.89805    74.48975     0.21328
      1257 72898.54391    76.78564    75.13975     0.21230
      1258 72956.86274    76.68760    78.11654     0.20620
      1259 73015.22823    76.59999    78.07757     0.20841
      1260 73073.64042    76.52150    73.99515     0.20730
      1261 73132.09933    76.44981    81.46920     0.19810
      1262 73190.60501    76.38394    78.49494     0.20718
      1263 73249.15749    76.15581    74.48370     0.20879
      1264 73307.75682    75.88274    74.90830     0.20737
      1265 73366.40302    75.75930    78.39515     0.20530
      1266 73425.09615    75.69820    75.87232     0.20375
      1267 73483.83622    75.66319    76.76505     0.20437
      1268 73542.62329    75.63905    74.80876     0.21021
      1269 73601.45739    75.61943    75.43585     0.20596
      1270 73660.33856    75.60166    79.65594     0.19724
      1271 73719.26683    75.58455    80.13193     0.19791
      1272 73778.24224    75.56803    74.68332     0.20992
      1273 73837.26483    75.55147    76.44847     0.20156
      1274 73896.33465    75.53487    78.90127     0.19588
      1275 73955.45171    75.51822    78.67940     0.19337
      1276 74014.61607    75.50153    74.37198     0.20741
      1277 74073.82777    75.48480    72.61292     0.20633
      1278 74133.08683    75.46803    77.67913     0.19503
      1279 74192.39330    75.45121    74.70464     0.19872
      1280 74251.74721    75.43436    73.05017     0.20577
      1281 74311.14861    75.41746    75.15383     0.20002
      1282 74370.59753    75.40053    75.25198     0.20069
      1283 74430.09401    75.38355    74.08361     0.20053
      1284 74489.63808    75.36653    75.65619     0.19591
      1285 74549.22979    75.34948    77.82773     0.19635
      1286 74608.86918    75.33239    75.38481     0.19518
      1287 74668.55627    75.31526    74.66638     0.19652
      1288 74728.29112    75.29809    77.29869     0.19244
      1289 74788.07375    75.28088    79.34331     0.18586
      1290 74847.90421    75.26364    73.99623     0.19542
      1291 74907.78253    75.24636    75.74309     0.19304
      1292 74967.70876    75.22904    73.44092     0.19698
      1293 75027.68293    75.21169    78.26111     0.18825
      1294 75087.70507    75.19430    76.50889     0.18825
      1295 75147.77524    75.17687    77.36373     0.18385
      1296 75207.89346    75.15941    79.43786     0.18082
      1297 75268.05977    75.14192    75.14277     0.19243
      1298 75328.27422    75.12439    78.98979     0.18227
      1299 75388.53684    75.10683    71.49640     0.19111
      1300 75448.84767    75.08923    74.00720     0.18672
      1301 75509.20675    75.07160    75.83892     0.18688
      1302 75569.61411    75.05394    75.49572     0.18369
      1303 75630.06980    75.03625    76.70375     0.18600
      1304 75690.57386    75.01852    74.10493     0.18324
      1305 75751.12632    75.00076    69.72272     0.19310
      1306 75811.72722    74.98297    75.02003     0.18335
      1307 75872.37660    74.96515    72.23019     0.18644
      1308 75933.07450    74.94730    75.90019     0.18136
      1309 75993.82096    74.92941    72.90995     0.18056
      1310 76054.61602    74.91150    79.97739     0.17742
      1311 76115.45971    74.89356    72.52166     0.18328
      1312 76176.35208    74.87559    76.68122     0.17729
      1313 76237.29316    74.85759    77.57332     0.17717
      1314 76298.28300    74.83956    77.14735     0.17214
      1315 76359.32162    74.82150    76.12574     0.17700
      1316 76420.40908    74.80342    75.17673     0.17758
      1317 76481.54541    74.78530    74.77558     0.17772
      1318 76542.73064    74.76716    76.52468     0.17498
      1319 76603.96483    74.74900    74.28126     0.18095
      1320 76665.24800    74.73080    74.64524     0.17845
      1321 76726.58020    74.71258    74.03477     0.17727
      1322 76787.96146    74.69434    72.80125     0.17531
      1323 76849.39183    74.67607    71.32839     0.18366
      1324 76910.87134    74.65777    75.03243     0.17813
      1325 76972.40004    74.63945    71.36052     0.17766
      1326 77033.97796    74.62110    74.46992     0.17318
      1327 77095.60514    74.60273    77.72053     0.17503
      1328 77157.28163    74.58434    74.26194     0.17048
      1329 77219.00745    74.56593    77.46626     0.16960
      1330 77280.78266    74.54749    74.76580     0.17496
      1331 77342.60729    74.52902    71.09488     0.18028
      1332 77404.48137    74.51054    74.67252     0.17419
      1333 77466.40496    74.49203    74.13887     0.17118
      1334 77528.37808    74.47350    71.36923     0.17068
      1335 77590.40078    74.45495    69.61210     0.17943
      1336 77652.47310    74.43638    72.78351     0.17091
      1337 77714.59508    74.41779    74.62525     0.16807
      1338 77776.76676    74.39918    77.09367     0.17083
      1339 77838.98817    74.38055    78.52285     0.16526
      1340 77901.25936    74.36190    71.18522     0.17448
      1341 77963.58037    74.34323    75.70291     0.16892
      1342 78025.95123    74.32454    72.19118     0.16838
      1343 78088.37199    74.30583    71.58468     0.16919
      1344 78150.84269    74.28710    76.82908     0.16278
      1345 78213.36337    74.26836    73.54968     0.16430
      1346 78275.93406    74.24960    74.39477     0.15997
      1347 78338.55480    74.23082    74.94500     0.16011
      1348 78401.22565    74.21202    77.05130     0.15901
      1349 78463.94663    74.19321    72.87163     0.16565
      1350 78526.71779    74.17438    77.51778     0.15837
      1351 78589.53916    74.15553    76.62625     0.15673
      1352 78652.41079    74.13667    74.45228     0.16067
      1353 78715.33272    74.11779    73.90951     0.16674
      1354 78778.30499    74.09890    77.10115     0.15700
      1355 78841.32763    74.07999    75.59527     0.15839
      1356 78904.40069    74.06107    72.15486     0.16274
      1357 78967.52421    74.04213    72.00625     0.16089
      1358 79030.69823    74.02318    76.83947     0.15396
      1359 79093.92279    74.00422    74.28251     0.15590
      1360 79157.19793    73.98524    74.82407     0.15930
      1361 79220.52369    73.96625    73.54228     0.15963
      1362 79283.90011    73.94725    77.48254     0.15121
      1363 79347.32723    73.92823    71.44306     0.16086
      1364 79410.80509    73.90921    73.69083     0.15197
      1365 79474.33373    73.89017    77.23219     0.14838
      1366 79537.91320    73.87112    73.28182     0.15516
      1367 79601.54353    73.85206    70.91407     0.15181
      1368 79665.22476    73.83298    73.01423     0.15196
      1369 79728.95694    73.81390    77.81053     0.15244
      1370 79792.74011    74.00420    73.55108     0.15084
      1371 79856.57430    74.34306    73.73658     0.15286
      1372 79920.45956    74.63547    74.04514     0.15117
      1373 79984.39593    74.77758    75.18401     0.14614
      1374 80048.38345    74.86546    74.70192     0.15226
      1375 80112.42215    74.93682    77.72909     0.14315
      1376 80176.51209    75.00694    70.33622     0.15286
      1377 80240.65330    75.08240    69.89187     0.15187
      1378 80304.84582    75.16657    70.60329     0.14890
      1379 80369.08970    75.26159    78.06075     0.14672
      1380 80433.38497    75.36981    75.53618     0.13995
      1381 80497.73168    75.49356    73.78707     0.14357
      1382 80562.12986    75.63548    73.15288     0.15072
      1383 80626.57957    75.79879    70.58867     0.14496
      1384 80691.08083    75.98745    70.92955     0.14663
      1385 80755.63370    76.20638    72.94883     0.13625
      1386 80820.23820    76.46174    76.03537     0.13846
      1387 80884.89439    76.76137    77.45907     0.13690
      1388 80949.60231    77.11528    74.39049     0.13880
      1389 81014.36199    77.53650    73.08352     0.13877
      1390 81079.17348    78.04220    77.52854     0.13335
      1391 81144.03682    78.65533    76.82923     0.13414
      1392 81208.95205    79.40718    78.88265     0.13192
      1393 81273.91921    80.34116    74.08791     0.13629
      1394 81338.93835    81.51902    71.22956     0.14016
      1395 81404.00950    83.03168    74.71538     0.13580
      1396 81469.13271    85.02555    77.69822     0.12848
      1397 81534.30801    87.80091    72.82507     0.13219
      1398 81599.53546    92.23339    79.71059     0.12395
      1399 81664.81509   101.27996    88.97028     0.11541
      1400 81730.14694   123.75855   107.77651     0.09938
      1401 81795.53106   179.57868   158.46996     0.07433
      1402 81860.96748   298.51534   285.71527     0.04420
      1403 81926.45625   499.52105   517.96447     0.02565
      1404 81991.99742   752.33414   795.97565     0.01690
      1405 82057.59102   955.64785  1016.99193     0.01332
      1406 82123.23709   993.25179  1004.28334     0.01346
      1407 82188.93568   851.31498   848.37871     0.01569
      1408 82254.68683   622.32625   585.70618     0.02229
      1409 82320.49058   407.64159   403.37588     0.03134
      1410 82386.34697   256.89169   242.28309     0.04933
      1411 82452.25605   169.80433   175.36757     0.06516
      1412 82518.21785   125.35235   128.68465     0.08156
      1413 82584.23243   103.80419   105.93330     0.09586
      1414 82650.29981    93.17695    95.40519     0.10291
      1415 82716.42005    87.55688    89.53975     0.10746
      1416 82782.59319    84.27196    83.48023     0.11094
      1417 82848.81926    82.13440    82.29160     0.11102
      1418 82915.09832    80.60861    85.41216     0.10995
      1419 82981.43040    79.44654    77.84055     0.11893
      1420 83047.81554    78.53180    77.24851     0.12096
      1421 83114.25379    77.79456    77.80824     0.11807
      1422 83180.74520    77.18694    70.26293     0.12425
      1423 83247.28979    76.67616    77.41150     0.11650
      1424 83313.88763    76.24338    74.50049     0.11811
      1425 83380.53874    75.87353    74.98733     0.11981
      1426 83447.24317    75.55479    75.54543     0.11634
      1427 83514.00096    75.27791    74.76371     0.11612
      1428 83580.81216    75.03563    70.26613     0.11798
      1429 83647.67681    74.82219    71.83601     0.11350
      1430 83714.59495    74.63304    76.11551     0.11674
      1431 83781.56663    74.46448    73.68321     0.11225
      1432 83848.59188    74.31356    71.96749     0.11530
      1433 83915.67076    74.17785    67.88763     0.11601
      1434 83982.80329    74.05546    72.76847     0.11245
      1435 84049.98953    73.94475    71.61532     0.11300
      1436 84117.22953    73.84437    69.19969     0.11552
      1437 84184.52331    73.75328    68.11297     0.11964
      1438 84251.87093    73.67056    70.06550     0.11281
      1439 84319.27243    73.31104    70.66501     0.11398
      1440 84386.72784    72.83135    74.90521     0.10827
      1441 84454.23723    72.65544    73.37037     0.10775
      1442 84521.80062    72.59011    72.55428     0.11028
      1443 84589.41806    72.56812    71.27891     0.10874
      1444 84657.08959    72.56540    67.38490     0.11705
      1445 84724.81526    72.57416    69.20272     0.11603
      1446 84792.59511    72.59295    75.56874     0.10626
      1447 84860.42919    72.62465    66.02270     0.11414
      1448 84928.31753    72.67432    72.08010     0.10486
      1449 84996.26019    72.75877    69.87834     0.10804
      1450 85064.25720    72.93230    76.96249     0.10482
      1451 85132.30860    73.35928    77.22421     0.10504
      1452 85200.41445    74.43704    75.04822     0.10408
      1453 85268.57478    76.85166    74.56362     0.10759
      1454 85336.78964    81.28521    78.17775     0.10094
      1455 85405.05907    87.62537    86.07006     0.09442
      1456 85473.38312    94.13206    96.34995     0.08568
      1457 85541.76183    97.69644    91.81734     0.08761
      1458 85610.19523    96.29447    95.00664     0.08603
      1459 85678.68339    91.04365    89.21388     0.09383
      1460 85747.22634    84.71515    84.23194     0.09226
      1461 85815.82412    79.46705    74.98466     0.09633
      1462 85884.47678    76.03152    68.41635     0.10676
      1463 85953.18436    74.12396    71.92947     0.09761
      1464 86021.94691    73.16375    68.82509     0.10587
      1465 86090.76446    72.69177    66.97450     0.10802
      1466 86159.63708    72.44720    74.52085     0.09485
      1467 86228.56479    72.30531    72.31672     0.09995
      1468 86297.54764    72.21109    68.89665     0.09889
      1469 86366.58568    72.14071    74.13567     0.09803
      1470 86435.67894    72.08368    72.98096     0.09791
      1471 86504.82749    72.03509    71.28214     0.09753
      1472 86574.03135    71.99242    74.80826     0.09592
      1473 86643.29057    71.95413    73.91847     0.09893
      1474 86712.60521    71.91920    78.46468     0.09076
      1475 86781.97529    71.88690    71.86303     0.09673
      1476 86851.40087    71.85668    73.46424     0.09501
      1477 86920.88199    71.82813    65.44365     0.09831
      1478 86990.41870    71.80095    75.89682     0.09508
      1479 87060.01103    71.77488    78.38656     0.09191
      1480 87129.65904    71.74974    76.60228     0.09505
      1481 87199.36277    71.72538    76.83115     0.09168
      1482 87269.12226    71.70167    74.51623     0.09166
      1483 87338.93756    71.67852    73.03857     0.09479
      1484 87408.80871    71.65585    77.43840     0.09146
      1485 87478.73575    71.63358    70.03865     0.09217
      1486 87548.71874    71.61167    70.84077     0.09573
      1487 87618.75772    71.59007    65.64793     0.09488
      1488 87688.85272    71.56874    72.99475     0.08871
      1489 87759.00381    71.54765    73.94265     0.09224
      1490 87829.21101    71.52677    71.98277     0.09212
      1491 87899.47438    71.50606    74.15882     0.09216
      1492 87969.79396    71.47783    78.40730     0.09222
      1493 88040.16979    71.44593    74.68049     0.09317
      1494 88110.60193    71.42264    79.08315     0.08726
      1495 88181.09041    71.40225    70.51523     0.09530
      1496 88251.63528    71.38288    71.57084     0.09497
      1497 88322.23659    71.36389    72.55198     0.09426
      1498 88392.89438    71.34503    75.13307     0.09190
      1499 88463.60869    71.32622    73.18817     0.09296
      1500 88534.37958    71.30745    74.29374     0.09349
      1501 88605.20709    71.28868    75.61110     0.09192
      1502 88676.09125    71.26992    75.43278     0.09020
      1503 88747.03212    71.25117    74.87356     0.09192
      1504 88818.02975    71.23243    75.67583     0.08969
      1505 88889.08417    71.21370    70.51767     0.09102
      1506 88960.19544    71.19497    74.85470     0.09155
      1507 89031.36360    71.17625    69.14251     0.09280
      1508 89102.58869    71.15754    74.32209     0.09031
      1509 89173.87076    71.13884    75.94385     0.09235
      1510 89245.20986    71.12014    71.35681     0.09384
      1511 89316.60602    71.10146    74.37628     0.09296
      1512 89388.05931    71.08278    75.09763     0.09438
      1513 89459.56976    71.06411    72.45935     0.09134
      1514 89531.13741    71.04544    74.54823     0.09040
      1515 89602.76232    71.02678    70.04229     0.09202
      1516 89674.44453    71.00814    70.52622     0.09642
      1517 89746.18409    70.98949    72.27205     0.08981
      1518 89817.98103    70.97086    71.34819     0.09218
      1519 89889.83542    70.95223    72.43208     0.09290
      1520 89961.74729    70.93361    70.04024     0.09645
      1521 90033.71669    70.91500    66.81933     0.09764
      1522 90105.74366    70.89639    72.40844     0.09314
      1523 90177.82825    70.87779    70.66581     0.09185
      1524 90249.97052    70.85920    72.14777     0.09497
      1525 90322.17049    70.84061    72.25851     0.08978
      1526 90394.42823    70.82204    70.63620     0.09347
      1527 90466.74377    70.80346    70.99234     0.09463
      1528 90539.11717    70.78490    71.56120     0.09369
      1529 90611.54846    70.76634    68.09103     0.09397
      1530 90684.03770    70.74779    68.50606     0.09609
      1531 90756.58493    70.72924    70.06028     0.09136
      1532 90829.19020    70.71070    72.42389     0.09013
      1533 90901.85355    70.69216    71.64007     0.08770
      1534 90974.57503    70.67363    67.59592     0.09257
      1535 91047.35469    70.65511    72.23362     0.08818
      1536 91120.19258    70.63659    67.37409     0.09353
      1537 91193.08873    70.61808    65.35192     0.09188
      1538 91266.04320    70.59958    73.50475     0.08614
      1539 91339.05604    70.58108    69.53818     0.08745
      1540 91412.12728    70.56258    73.38929     0.08825
      1541 91485.25698    70.54409    73.75230     0.08567
      1542 91558.44519    70.52561    69.10115     0.08794
      1543 91631.69194    70.50713    68.81066     0.08962
      1544 91704.99730    70.48865    75.64765     0.08389
      1545 91778.36130    70.47018    67.50859     0.08600
      1546 91851.78398    70.45171    67.27317     0.08330
      1547 91925.26541    70.43325    70.68730     0.08469
      1548 91998.80562    70.41479    67.53756     0.08613
      1549 92072.40467    70.39634    66.42078     0.08783
      1550 92146.06259    70.37789    69.20859     0.08824
      1551 92219.77944    70.35945    68.82281     0.08607
      1552 92293.55527    70.34101    68.69562     0.08653
      1553 92367.39011    70.32257    76.29001     0.08062
      1554 92441.28402    70.30413    62.67455     0.08656
      1555 92515.23705    70.28570    70.64466     0.08148
      1556 92589.24924    70.26727    66.55431     0.08379
      1557 92663.32064    70.24885    64.06710     0.08942
      1558 92737.45129    70.23043    69.41736     0.08230
      1559 92811.64126    70.21201    74.77029     0.08122
      1560 92885.89057    70.19359    72.49423     0.08089
      1561 92960.19928    70.17518    76.83027     0.08269
      1562 93034.56744    70.15677    60.58246     0.08729
      1563 93108.99509    70.13836    70.00189     0.08304
      1564 93183.48229    70.11995    74.50095     0.08238
      1565 93258.02908    70.10154    66.20553     0.08045
      1566 93332.63550    70.08314    66.48523     0.08147
      1567 93407.30161    70.06474    70.93181     0.08029
      1568 93482.02745    70.04634    73.22687     0.07896
      1569 93556.81307    70.02794    71.63112     0.08047
      1570 93631.65852    70.00954    77.31212     0.07775
      1571 93706.56385    69.99114    65.82437     0.08290
      1572 93781.52910    69.97274    69.96054     0.07849
      1573 93856.55432    69.95435    68.86640     0.08038
      1574 93931.63957    69.93595    66.59475     0.07988
      1575 94006.78488    69.91756    72.12151     0.07686
      1576 94081.99031    69.89916    68.16988     0.07825
      1577 94157.25590    69.88076    66.32848     0.08133
      1578 94232.58170    69.86237    70.84659     0.08075
      1579 94307.96777    69.84397    73.65090     0.07598
      1580 94383.41414    69.82557    68.62062     0.07989
      1581 94458.92087    69.80718    75.11749     0.07559
      1582 94534.48801    69.78878    74.06403     0.07372
      1583 94610.11560    69.77038    74.56012     0.07381
      1584 94685.80369    69.75198    70.76345     0.07709
      1585 94761.55234    69.73357    74.44879     0.07528
      1586 94837.36158    69.71517    71.00602     0.07481
      1587 94913.23147    69.69676    67.58489     0.07887
      1588 94989.16205    69.67835    68.48216     0.07443
      1589 95065.15338    69.65994    72.66415     0.07406
      1590 95141.20551    69.64153    70.81970     0.07804
      1591 95217.31847    69.62311    69.90121     0.07833
      1592 95293.49232    69.60469    74.78373     0.07451
      1593 95369.72712    69.58627    68.50396     0.07355
      1594 95446.02290    69.56785    78.46487     0.07201
      1595 95522.37972    69.54942    70.65934     0.07949
      1596 95598.79762    69.53099    70.72311     0.07477
      1597 95675.27666    69.51255    72.10713     0.07482
      1598 95751.81688    69.49411    79.71615     0.07110
      1599 95828.41834    69.47567    74.77711     0.07471
      1600 95905.08107    69.45722    73.84706     0.07274
      1601 95981.80513    69.43877    76.52474     0.07116
      1602 96058.59058    69.42031    71.21631     0.07629
      1603 96135.43745    69.40185    72.63950     0.07574
      1604 96212.34580    69.38338    73.12614     0.07347
      1605 96289.31568    69.36491    69.33959     0.07337
      1606 96366.34713    69.34643    75.40586     0.07264
      1607 96443.44021    69.32795    75.03919     0.07284
      1608 96520.59496    69.30946    66.53339     0.07594
      1609 96597.81144    69.29096    67.57896     0.07289
      1610 96675.08969    69.27246    71.80174     0.07246
      1611 96752.42976    69.25396    75.00605     0.07169
      1612 96829.83170    69.30952    70.94534     0.07235
      1613 96907.29557    69.69506    65.67582     0.07473
      1614 96984.82140    70.33841    72.11624     0.07316
      1615 97062.40926    70.57889    75.23842     0.06819
      1616 97140.05919    70.69497    74.75106     0.06660
      1617 97217.77123    70.77625    75.42490     0.06887
      1618 97295.54545    71.05708    73.97086     0.06884
      1619 97373.38189    72.00962    67.31522     0.07447
      1620 97451.28059    73.45178    71.06911     0.07002
      1621 97529.24162    74.07981    73.98938     0.06909
      1622 97607.26501    74.46456    78.30511     0.06353
      1623 97685.35082    74.78910    77.35257     0.06758
      1624 97763.49910    75.11380    76.98201     0.06586
      1625 97841.70990    75.45998    72.79826     0.06597
      1626 97919.98327    75.83628    83.16805     0.06220
      1627 97998.31926    76.24973    73.02619     0.06636
      1628 98076.71791    76.70598    69.36394     0.06359
      1629 98155.17929    77.21097    74.01497     0.06453
      1630 98233.70343    77.77164    74.35741     0.06375
      1631 98312.29039    78.39630    82.79254     0.06244
      1632 98390.94023    79.09482    85.53516     0.06065
      1633 98469.65298    79.87911    81.86593     0.06299
      1634 98548.42870    80.76358    73.27656     0.06566
      1635 98627.26744    81.76585    81.07907     0.06000
      1636 98706.16926    82.90764    84.19102     0.05820
      1637 98785.13419    84.21597    80.54852     0.06220
      1638 98864.16230    85.72480    82.08087     0.06343
      1639 98943.25363    87.47764    80.58659     0.06087
      1640 99022.40823    89.53109    82.15257     0.06034
      1641 99101.62616    91.95752    80.02106     0.06058
      1642 99180.90746    94.85441    95.58268     0.05553
      1643 99260.25219    98.35664    87.36500     0.05566
      1644 99339.66039   102.66837    93.66416     0.05520
      1645 99419.13212   108.16552    92.28166     0.05477
      1646 99498.66742   115.73543    99.53707     0.05319
      1647 99578.26636   127.75256   111.09894     0.04910
      1648 99657.92897   150.27019   129.83776     0.04233
      1649 99737.65531   196.42161   163.89853     0.03613
      1650 99817.44544   288.67960   240.48831     0.02530
      1651 99897.29939   454.36547   429.54196     0.01534
      1652 99977.21723   709.58774   706.19682     0.00962
      1653 100057.19901  1036.52288  1057.61424     0.00657
      1654 100137.24477  1371.32735  1369.92903     0.00510
      1655 100217.35456  1627.81919  1560.43358     0.00448
      1656 100297.52844  1776.42006  1680.76561     0.00417
      1657 100377.76647  1901.55272  1818.73463     0.00385
      1658 100458.06868  2130.59152  2190.09449     0.00320
      1659 100538.43514  2505.57405  2667.61596     0.00263
      1660 100618.86588  2908.61178  3092.09991     0.00227
      1661 100699.36098  3101.13467  3230.20694     0.00217
      1662 100779.92047  2909.78287  2930.97930     0.00239
      1663 100860.54440  2385.56778  2341.15028     0.00297
      1664 100941.23284  1728.42067  1690.67776     0.00408
      1665 101021.98582  1129.55241  1104.61059     0.00618
      1666 101102.80341   688.90969   714.89448     0.00928
      1667 101183.68565   414.37805   460.70135     0.01416
      1668 101264.63260   263.95890   313.29772     0.01986
      1669 101345.64431   188.10550   234.03281     0.02524
      1670 101426.72082   150.47317   171.06338     0.03297
      1671 101507.86220   130.54510   146.28566     0.03795
      1672 101589.06849   118.60430   134.71579     0.04093
      1673 101670.33975   110.46629   122.57778     0.04187
      1674 101751.67602   104.38463   102.67010     0.04803
      1675 101833.07736    99.59147   103.23394     0.04863
      1676 101914.54382    95.70161    99.38491     0.04804
      1677 101996.07546    92.48788    96.72288     0.04988
      1678 102077.67232    89.79824    88.09149     0.05150
      1679 102159.33445    87.52322    80.00525     0.05556
      1680 102241.06192    85.58097    90.10670     0.05206
      1681 102322.85477    83.90898    70.18388     0.06066
      1682 102404.71305    82.45879    78.08353     0.05621
      1683 102486.63683    81.19234    70.49950     0.05604
      1684 102568.62613    80.07940    75.20859     0.05731
      1685 102650.68104    79.09573    78.19715     0.05755
      1686 102732.80158    78.22169    79.61830     0.05507
      1687 102814.98782    77.44124    74.87374     0.05723
      1688 102897.23981    76.74118    76.69774     0.05795
      1689 102979.55760    76.11054    77.48717     0.05910
      1690 103061.94125    75.54019    77.65921     0.05604
      1691 103144.39080    75.02243    73.74754     0.05645
      1692 103226.90632    74.55076    73.43850     0.05680
      1693 103309.48784    74.11969    60.06031     0.06415
      1694 103392.13543    73.72454    68.09587     0.06151
      1695 103474.84914    73.30744    72.34806     0.05939
      1696 103557.62902    72.16174    64.31063     0.06113
      1697 103640.47512    71.55683    69.27801     0.05767
      1698 103723.38750    71.22398    73.85179     0.05735
      1699 103806.36621    70.98286    67.64067     0.05771
      1700 103889.41130    70.77868    67.80900     0.06080
      1701 103972.52283    70.35874    64.15783     0.06393
      1702 104055.70085    68.50736    71.42318     0.05659
      1703 104138.94541    67.79090    65.14222     0.05866
      1704 104222.25657    67.56475    63.88276     0.05754
      1705 104305.63437    67.48397    66.63519     0.06000
      1706 104389.07888    67.44618    73.99348     0.05954
      1707 104472.59015    67.42106    68.00372     0.05768
      1708 104556.16822    67.40031    70.02503     0.05523
      1709 104639.81315    67.38035    63.46337     0.05944
      1710 104723.52500    67.36037    70.39621     0.05615
      1711 104807.30382    67.34038    70.41271     0.05457
      1712 104891.14967    67.32036    68.78707     0.05594
      1713 104975.06259    67.30031    65.14582     0.05957
      1714 105059.04264    67.28025    72.37785     0.05764
      1715 105143.08987    67.26017    63.01834     0.05484
      1716 105227.20434    67.24006    63.92326     0.06075
      1717 105311.38610    67.21994    68.08986     0.05584
      1718 105395.63521    67.19979    65.39572     0.06080
      1719 105479.95172    67.17962    74.64712     0.05515
      1720 105564.33568    67.15943    74.48316     0.05440
      1721 105648.78715    67.13922    62.49591     0.05422
      1722 105733.30618    67.11898    67.83155     0.05838
      1723 105817.89283    67.09873    54.66938     0.05964
      1724 105902.54714    67.07845    63.62398     0.05706
      1725 105987.26918    67.05815    59.46667     0.05977
      1726 106072.05899    67.03783    68.82577     0.05366
      1727 106156.91664    67.01749    64.59841     0.05673
      1728 106241.84217    66.99713    67.11173     0.05619
      1729 106326.83565    66.97674    77.49058     0.05142
      1730 106411.89712    66.95634    62.05169     0.05592
      1731 106497.02663    66.93591    58.93436     0.05853
      1732 106582.22426    66.91546    61.28989     0.05419
      1733 106667.49003    66.89499    63.39407     0.05302
      1734 106752.82403    66.87449    59.18514     0.05614
      1735 106838.22629    66.85398    64.65405     0.05618
      1736 106923.69687    66.83344    58.22219     0.05608
      1737 107009.23582    66.81288    65.16961     0.05486
      1738 107094.84321    66.79230    66.93700     0.05074
      1739 107180.51909    66.77170    62.57413     0.05469
      1740 107266.26350    66.75108    77.64722     0.04905
      1741 107352.07651    66.73043    63.22596     0.05378
      1742 107437.95817    66.70976    67.14727     0.05216
      1743 107523.90854    66.68907    69.42861     0.04719
      1744 107609.92767    66.66836    61.13212     0.05551
      1745 107696.01561    66.64763    66.75712     0.04749
      1746 107782.17242    66.62688    70.95488     0.04891
      1747 107868.39816    66.60610    66.35709     0.05224
      1748 107954.69288    66.58531    72.18832     0.04996
      1749 108041.05663    66.56449    59.17461     0.04993
      1750 108127.48948    66.54365    67.73029     0.05030
      1751 108213.99147    66.52279    71.77323     0.04587
      1752 108300.56266    66.50190    65.87094     0.04859
      1753 108387.20311    66.48100    65.49190     0.04908
      1754 108473.91288    66.46007    61.52077     0.04989
      1755 108560.69201    66.43913    64.99276     0.04911
      1756 108647.54056    66.41816    70.23004     0.04873
      1757 108734.45859    66.39717    65.25859     0.04838
      1758 108821.44616    66.37616    74.20879     0.04716
      1759 108908.50332    66.35513    67.29279     0.04614
      1760 108995.63012    66.33408    69.54873     0.05037
      1761 109082.82662    66.31301    59.91168     0.05032
      1762 109170.09288    66.29191    64.07233     0.04363
      1763 109257.42896    66.27080    70.00926     0.04553
      1764 109344.83490    66.24966    63.51168     0.04948
      1765 109432.31077    66.22851    69.43401     0.04682
      1766 109519.85662    66.20733    64.42093     0.04526
      1767 109607.47250    66.18613    68.63794     0.04504
      1768 109695.15848    66.16491    65.96006     0.04541
      1769 109782.91461    66.14368    68.65291     0.04740
      1770 109870.74094    66.12242    71.69795     0.04472
      1771 109958.63753    66.10114    62.80645     0.04724
      1772 110046.60444    66.07984    67.18276     0.04962
      1773 110134.64173    66.05852    66.35630     0.04182
      1774 110222.74944    66.03718    65.58147     0.04472
      1775 110310.92764    66.01582    64.77149     0.04498
      1776 110399.17638    65.99444    69.90211     0.04624
      1777 110487.49572    65.97305    68.06381     0.04578
      1778 110575.88572    65.95163    71.98631     0.04482
      1779 110664.34643    65.93019    65.27339     0.04534
      1780 110752.87791    65.90873    66.68411     0.04482
      1781 110841.48021    65.88726    72.38048     0.04241
      1782 110930.15339    65.86576    64.60695     0.04475
      1783 111018.89751    65.84425    74.57247     0.04259
      1784 111107.71263    65.82272    67.65649     0.04391
      1785 111196.59880    65.80116    64.73025     0.04590
      1786 111285.55608    65.77959    78.98415     0.04025
      1787 111374.58453    65.75800    68.80275     0.04192
      1788 111463.68419    65.73639    67.24472     0.04377
      1789 111552.85514    65.71477    59.38572     0.04523
      1790 111642.09743    65.69312    66.58915     0.04039
      1791 111731.41110    65.67146    63.15668     0.04429
      1792 111820.79623    65.64978    65.55231     0.04318
      1793 111910.25287    65.62808    70.09769     0.04132
      1794 111999.78107    65.60636    70.88333     0.04063
      1795 112089.38090    65.58462    68.18086     0.04335
      1796 112179.05240    65.56287    66.13754     0.04210
      1797 112268.79564    65.54110    63.87632     0.04241
      1798 112358.61068    65.51931    71.71744     0.03959
      1799 112448.49757    65.49750    73.50950     0.03890
      1800 112538.45637    65.47568    66.09132     0.04145
      1801 112628.48713    65.45384    68.34877     0.04158
      1802 112718.58992    65.43198    70.60911     0.04159
      1803 112808.76479    65.41011    71.12747     0.04027
      1804 112899.01180    65.38822    65.61982     0.04316
      1805 112989.33101    65.36631    54.09613     0.04503
      1806 113079.72248    65.34439    53.97802     0.04269
      1807 113170.18626    65.32245    67.48226     0.03831
      1808 113260.72241    65.30049    68.30827     0.03865
      1809 113351.33098    65.27852    66.48094     0.03821
      1810 113442.01205    65.25653    73.06884     0.03965
      1811 113532.76566    65.23453    64.65848     0.04085
      1812 113623.59187    65.21251    61.17291     0.03999
      1813 113714.49074    65.19048    71.68539     0.04069
      1814 113805.46234    65.16842    64.88610     0.04270
      1815 113896.50671    65.14636    65.95370     0.03937
      1816 113987.62391    65.12428    64.18245     0.04011
      1817 114078.81401    65.10218    66.64665     0.03935
      1818 114170.07706    65.08007    70.13700     0.04056
      1819 114261.41312    65.05795    57.55654     0.04313
      1820 114352.82225    65.03581    69.70546     0.03990
      1821 114444.30451    65.01365    60.88693     0.04119
      1822 114535.85996    64.99148    64.01934     0.04248
      1823 114627.48864    64.96930    61.46337     0.03977
      1824 114719.19064    64.94710    61.40710     0.04110
      1825 114810.96599    64.92489    65.26200     0.03887
      1826 114902.81476    64.90267    57.62352     0.04259
      1827 114994.73701    64.88043    63.00904     0.04032
      1828 115086.73280    64.85817    77.59448     0.03508
      1829 115178.80219    64.83591    71.13780     0.03904
      1830 115270.94523    64.81363    61.15025     0.04028
      1831 115363.16199    64.79134    66.70739     0.03937
      1832 115455.45252    64.76903    62.58774     0.04053
      1833 115547.81688    64.74671    68.38821     0.03812
      1834 115640.25513    64.72438    66.31610     0.03701
      1835 115732.76734    64.70204    65.91001     0.03657
      1836 115825.35355    64.67968    78.78916     0.03671
      1837 115918.01383    64.65731    67.57101     0.03698
      1838 116010.74824    64.63493    59.88771     0.04051
      1839 116103.55684    64.61254    61.11703     0.03924
      1840 116196.43969    64.59014    60.75270     0.03995
      1841 116289.39684    64.56772    64.89083     0.03914
      1842 116382.42836    64.54529    60.79502     0.03891
      1843 116475.53430    64.52285    69.77058     0.03651
      1844 116568.71473    64.50040    64.24788     0.03831
      1845 116661.96970    64.47793    63.90834     0.03733
      1846 116755.29927    64.45546    65.43271     0.03633
      1847 116848.70351    64.43297    63.83791     0.03964
      1848 116942.18248    64.41048    69.26169     0.03744
      1849 117035.73622    64.38797    63.14547     0.03784
      1850 117129.36481    64.36545    66.72926     0.03583
      1851 117223.06830    64.34292    64.80360     0.03621
      1852 117316.84676    64.32038    69.59791     0.03301
      1853 117410.70023    64.29783    69.02520     0.03236
      1854 117504.62880    64.27527    75.92684     0.03426
      1855 117598.63250    64.25270    66.28185     0.03315
      1856 117692.71140    64.23012    72.74991     0.03683
      1857 117786.86557    64.20753    72.64518     0.03605
      1858 117881.09507    64.18492    60.58412     0.03362
      1859 117975.39994    64.16231    69.71324     0.03458
      1860 118069.78026    64.13969    57.02910     0.03723
      1861 118164.23609    64.11706    62.93468     0.03518
      1862 118258.76747    64.09442    61.13351     0.03714
      1863 118353.37449    64.07177    73.83425     0.03330
      1864 118448.05719    64.04911    60.13303     0.03629
      1865 118542.81563    64.02644    59.99289     0.03888
      1866 118637.64989    64.00376    70.91999     0.03556
      1867 118732.56001    63.98107    78.69809     0.03233
      1868 118827.54605    63.95838    70.63654     0.03343
      1869 118922.60809    63.93567    59.02250     0.03594
      1870 119017.74618    63.91296    69.54849     0.03305
      1871 119112.96037    63.89023    65.55645     0.03354
      1872 119208.25074    63.86750    57.86740     0.03288
      1873 119303.61734    63.84476    69.19779     0.03373
      1874 119399.06024    63.82201    71.04884     0.03290
      1875 119494.57949    63.79925    64.45573     0.03317
      1876 119590.17515    63.77649    65.82463     0.03377
      1877 119685.84729    63.75371    65.00243     0.03344
      1878 119781.59597    63.73093    57.33327     0.03344
      1879 119877.42124    63.70813    69.66600     0.03102
      1880 119973.32318    63.68533    71.45629     0.03239
      1881 120069.30184    63.66252    69.36147     0.03033
      1882 120165.35728    63.63971    55.97830     0.03599
      1883 120261.48957    63.61688    64.82495     0.03445
      1884 120357.69876    63.59405    75.37628     0.02964
      1885 120453.98492    63.57121    64.46445     0.03394
      1886 120550.34811    63.54836    70.73473     0.03106
      1887 120646.78838    63.52550    56.26653     0.03572
      1888 120743.30581    63.50263    55.72612     0.03308
      1889 120839.90046    63.47976    65.28040     0.03197
      1890 120936.57238    63.45688    73.50884     0.03117
      1891 121033.32164    63.43399    70.69959     0.02989
      1892 121130.14829    63.41109    67.31944     0.02871
      1893 121227.05241    63.38819    75.59871     0.02973
      1894 121324.03406    63.36527    64.82253     0.02961
      1895 121421.09328    63.34235    59.71771     0.02984
      1896 121518.23016    63.31942    66.66339     0.03097
      1897 121615.44474    63.29649    61.88043     0.03072
      1898 121712.73710    63.27354    72.94537     0.02792
      1899 121810.10729    63.25059    67.17537     0.03140
      1900 121907.55537    63.22763    76.64670     0.02980
      1901 122005.08142    63.20466    60.91382     0.03028
      1902 122102.68548    63.18169    51.66146     0.03224
      1903 122200.36763    63.15870    60.18903     0.03113
      1904 122298.12792    63.13571    56.29538     0.03318
      1905 122395.96643    63.11271    64.14440     0.03113
      1906 122493.88320    63.08970    66.99848     0.03023
      1907 122591.87831    63.06669    66.07293     0.03144
      1908 122689.95181    63.04367    62.14510     0.02991
      1909 122788.10377    63.02063    58.16298     0.03218
      1910 122886.33425    62.99760    64.08803     0.03031
      1911 122984.64332    62.97455    65.82474     0.02957
      1912 123083.03104    62.95149    64.48114     0.02994
      1913 123181.49746    62.92843    59.23970     0.03098
      1914 123280.04266    62.90536    64.03557     0.03147
      1915 123378.66669    62.88228    60.62520     0.02852
      1916 123477.36963    62.85919    54.77425     0.03113
      1917 123576.15152    62.83610    69.59032     0.02732
      1918 123675.01244    62.81299    66.02677     0.03234
      1919 123773.95245    62.78988    65.12156     0.02845
      1920 123872.97162    62.76676    63.82963     0.02873
      1921 123972.06999    62.74363    61.96963     0.03058
      1922 124071.24765    62.72050    68.04528     0.02854
      1923 124170.50465    62.69735    62.28842     0.03197
      1924 124269.84105    62.67420    58.47543     0.03048
      1925 124369.25692    62.65104    60.53825     0.03067
      1926 124468.75233    62.62787    59.74384     0.03142
      1927 124568.32733    62.60469    71.95540     0.02692
      1928 124667.98199    62.58150    58.91532     0.02970
      1929 124767.71638    62.55830    60.77300     0.02931
      1930 124867.53055    62.53510    57.72861     0.03001
      1931 124967.42458    62.51188    63.76214     0.02926
      1932 125067.39852    62.48866    60.43924     0.02954
      1933 125167.45243    62.46543    71.12587     0.02805
      1934 125267.58640    62.44218    63.11549     0.02753
      1935 125367.80046    62.41893    64.17941     0.02640
      1936 125468.09471    62.39567    60.09132     0.02867
      1937 125568.46918    62.37240    69.05313     0.02680
      1938 125668.92396    62.34913    64.36276     0.02694
      1939 125769.45910    62.32584    54.62943     0.02960
      1940 125870.07466    62.30254    53.92251     0.02894
      1941 125970.77072    62.27924    71.49103     0.02568
      1942 126071.54734    62.25592    60.60895     0.02669
      1943 126172.40458    62.23259    60.91708     0.02788
      1944 126273.34250    62.20926    60.77377     0.02607
      1945 126374.36117    62.18591    70.99205     0.02448
      1946 126475.46066    62.16256    66.19844     0.02597
      1947 126576.64103    62.13920    60.70840     0.02418
      1948 126677.90235    62.11582    63.00969     0.02530
      1949 126779.24467    62.09244    67.17326     0.02414
      1950 126880.66806    62.06904    50.01908     0.02966
      1951 126982.17260    62.04564    64.53175     0.02394
      1952 127083.75834    62.02223    65.45300     0.02711
      1953 127185.42534    61.99880    60.79389     0.02548
      1954 127287.17368    61.97537    46.42403     0.03246
      1955 127389.00342    61.95192    59.63060     0.02448
      1956 127490.91462    61.92847    65.40368     0.02434
      1957 127592.90736    61.90501    60.48831     0.02547
      1958 127694.98168    61.88153    59.88945     0.02417
      1959 127797.13767    61.85805    63.72551     0.02351
      1960 127899.37538    61.83455    54.86266     0.02845
      1961 128001.69488    61.81105    59.49771     0.02505
      1962 128104.09623    61.78753    70.78748     0.02431
      1963 128206.57951    61.76400    53.06344     0.02661
      1964 128309.14477    61.74047    59.83306     0.02517
      1965 128411.79209    61.71692    61.66956     0.02530
      1966 128514.52152    61.69336    48.68667     0.02840
      1967 128617.33314    61.66980    58.31538     0.02657
      1968 128720.22701    61.64622    59.82004     0.02443
      1969 128823.20319    61.62263    60.25161     0.02802
      1970 128926.26175    61.59903    67.51531     0.02538
      1971 129029.40276    61.57542    63.74131     0.02457
      1972 129132.62628    61.55181    57.99720     0.02468
      1973 129235.93238    61.52818    64.13621     0.02447
      1974 129339.32113    61.50454    69.79806     0.02325
      1975 129442.79259    61.48089    61.13443     0.02544
      1976 129546.34682    61.45723    65.76809     0.02404
      1977 129649.98390    61.43357    64.43333     0.02387
      1978 129753.70389    61.40989    57.82977     0.02485
      1979 129857.50685    61.38620    61.76324     0.02363
      1980 129961.39285    61.36251    60.85834     0.02495
      1981 130065.36197    61.33880    54.66646     0.02574
      1982 130169.41426    61.31509    55.96599     0.02517
      1983 130273.54979    61.29136    62.16462     0.02568
      1984 130377.76863    61.26763    55.97533     0.02649
      1985 130482.07084    61.24389    68.51295     0.02299
      1986 130586.45650    61.22014    54.19165     0.02583
      1987 130690.92567    61.19638    61.13167     0.02499
      1988 130795.47841    61.17261    67.71072     0.02443
      1989 130900.11479    61.14884    58.29215     0.02443
      1990 131004.83488    61.12506    64.63411     0.02349
      1991 131109.63875    61.10127    57.87090     0.02473
      1992 131214.52646    61.07747    51.34680     0.02663
      1993 131319.49808    61.05367    60.05580     0.02333
      1994 131424.55368    61.02986    59.00840     0.02388
      1995 131529.69332    61.00604    58.41795     0.02403
      1996 131634.91708    60.98222    71.11259     0.02266
      1997 131740.22501    60.95839    61.30395     0.02312
      1998 131845.61719    60.93456    50.60730     0.02379
      1999 131951.09368    60.91072    55.58967     0.02482
      2000 132056.65456    60.88688    65.63556     0.02213
      2001 132162.29988    60.86303    70.88919     0.02064
      2002 132268.02972    60.83918    57.01313     0.02424
      2003 132373.84415    60.81532    59.28406     0.02555
      2004 132479.74322    60.79147    58.85292     0.02444
      2005 132585.72702    60.76761    56.29677     0.02409
      2006 132691.79560    60.74375    60.46495     0.02355
      2007 132797.94903    60.71988    76.38029     0.02180
      2008 132904.18739    60.69602    52.89906     0.02269
      2009 133010.51074    60.67215    58.99466     0.02228
      2010 133116.91915    60.64829    63.14485     0.02171
      2011 133223.41269    60.62443    52.44128     0.02018
      2012 133329.99142    60.60057    59.42622     0.02258
      2013 133436.65541    60.57671    57.53615     0.02221
      2014 133543.40474    60.55285    52.78986     0.02212
      2015 133650.23946    60.52900    60.31081     0.02068
      2016 133757.15965    60.50515    55.86099     0.02270
      2017 133864.16538    60.48130    56.14867     0.02327
      2018 133971.25671    60.45746    57.98172     0.02223
      2019 134078.43372    60.43363    55.08494     0.02283
      2020 134185.69646    60.40981    64.66743     0.02117
      2021 134293.04502    60.38599    59.84357     0.02150
      2022 134400.47946    60.36218    49.36157     0.02405
      2023 134507.99984    60.33839    52.89074     0.02269
      2024 134615.60624    60.31460    64.76800     0.02185
      2025 134723.29872    60.29082    59.47109     0.02097
      2026 134831.07736    60.26706    45.00939     0.02527
      2027 134938.94223    60.24331    69.27769     0.02148
      2028 135046.89338    60.21958    62.06498     0.02194
      2029 135154.93089    60.19586    54.00779     0.02243
      2030 135263.05484    60.74018    61.17173     0.02206
      2031 135371.26528    61.43706    64.45100     0.01955
      2032 135479.56229    61.65744    63.28724     0.02170
      2033 135587.94594    61.72861    54.68265     0.02243
      2034 135696.41630    61.77151    70.67154     0.02034
      2035 135804.97343    61.81122    60.14064     0.02197
      2036 135913.61741    61.85295    66.32989     0.02136
      2037 136022.34831    61.89832    65.36815     0.01946
      2038 136131.16619    61.94774    55.55336     0.02082
      2039 136240.07112    62.00154    58.48579     0.02166
      2040 136349.06318    62.06016    62.22843     0.01928
      2041 136458.14243    62.38441    52.61821     0.02290
      2042 136567.30894    62.82657    52.02135     0.02046
      2043 136676.56279    63.14654    56.51345     0.02012
      2044 136785.90404    63.30480    78.81567     0.01905
      2045 136895.33276    63.43686    68.41526     0.01995
      2046 137004.84903    63.57142    66.50288     0.01953
      2047 137114.45291    63.71500    67.99840     0.01922
      2048 137224.14447    63.86984    54.30891     0.02265
      2049 137333.92378    64.03732    50.85122     0.02094
      2050 137443.79092    64.21866    60.55971     0.02056
      2051 137553.74596    64.41525    55.47420     0.02224
      2052 137663.78895    64.62865    63.47422     0.01993
      2053 137773.91998    64.86067    50.87395     0.02192
      2054 137884.13912    65.11332    48.74794     0.02005
      2055 137994.44643    65.38900    69.37406     0.01842
      2056 138104.84199    65.69042    67.06372     0.01914
      2057 138215.32586    66.02045    64.75778     0.01830
      2058 138325.89812    66.38259    57.75561     0.01848
      2059 138436.55884    66.78090    66.38380     0.02109
      2060 138547.30809    67.22007    59.67297     0.02000
      2061 138658.14593    67.70564    76.74589     0.01758
      2062 138769.07245    68.24407    72.27315     0.01798
      2063 138880.08771    68.84303    59.85497     0.01988
      2064 138991.19178    69.51162    61.31649     0.01945
      2065 139102.38473    70.26073    76.33282     0.01670
      2066 139213.66664    71.10350    60.67908     0.01860
      2067 139325.03757    72.05584    68.15078     0.01871
      2068 139436.49760    73.13721    74.07132     0.01805
      2069 139548.04680    74.37165    61.18374     0.01979
      2070 139659.68524    75.78937    61.23639     0.01951
      2071 139771.41299    77.42855    66.02979     0.01967
      2072 139883.23012    79.34020    73.53974     0.01804
      2073 139995.13670    81.59786    80.37312     0.01614
      2074 140107.13281    84.32173    74.39892     0.01816
      2075 140219.21852    87.73751    71.81890     0.01804
      2076 140331.39389    92.31035    81.42530     0.01722
      2077 140443.65901    99.01880    84.44230     0.01647
      2078 140556.01393   109.84234    88.16819     0.01524
      2079 140668.45875   128.48204    93.52817     0.01456
      2080 140780.99351   161.15933   139.82987     0.01128
      2081 140893.61831   217.02862   195.40790     0.00878
      2082 141006.33320   307.42291   296.26864     0.00614
      2083 141119.13827   443.14078   465.86324     0.00415
      2084 141232.03358   629.61974   697.08794     0.00284
      2085 141345.01921   861.08611  1027.28438     0.00196
      2086 141458.09522  1115.87414  1279.78163     0.00158
      2087 141571.26170  1355.25356  1505.76659     0.00135
      2088 141684.51871  1528.58280  1632.33996     0.00123
      2089 141797.86632  1589.82207  1737.48384     0.00117
      2090 141911.30462  1522.99550  1612.45006     0.00124
      2091 142024.83366  1353.62928  1398.67523     0.00142
      2092 142138.45353  1133.34211  1208.34507     0.00163
      2093 142252.16429   916.92215  1005.21294     0.00194
      2094 142365.96602   747.88027   859.27675     0.00224
      2095 142479.85879   652.10483   765.28650     0.00246
      2096 142593.84268   636.37756   775.93450     0.00241
      2097 142707.91775   689.99458   864.60934     0.00219
      2098 142822.08409   788.14608   942.53180     0.00200
      2099 142936.34176   896.15705  1014.89942     0.00189
      2100 143050.69083   975.35197  1068.05153     0.00176
      2101 143165.13138   993.62337  1072.54326     0.00179
      2102 143279.66349   939.20188   982.53844     0.00192
      2103 143394.28722   825.01877   840.51280     0.00228
      2104 143509.00265   678.29014   672.84192     0.00273
      2105 143623.80985   527.01792   537.62885     0.00342
      2106 143738.70890   392.08617   412.00587     0.00429
      2107 143853.69986   284.66594   300.56555     0.00558
      2108 143968.78282   207.04487   238.62284     0.00688
      2109 144083.95785   155.46000   175.12565     0.00944
      2110 144199.22502   123.45038   149.24640     0.00924
      2111 144314.58440   104.49780   125.76551     0.01189
      2112 144430.03606    93.43707   109.72067     0.01202
      2113 144545.58009    86.79267    96.61710     0.01291
      2114 144661.21656    82.50437   104.55669     0.01347
      2115 144776.94553    79.46748    74.43518     0.01480
      2116 144892.76709    77.13065    89.10837     0.01569
      2117 145008.68130    75.22706    73.00610     0.01485
      2118 145124.68825    73.62373    66.13634     0.01646
      2119 145240.78800    72.24765    52.87339     0.01881
      2120 145356.98063    71.05294    78.79162     0.01527
      2121 145473.26621    70.00739    70.76257     0.01614
      2122 145589.64482    69.08631    65.70080     0.01694
      2123 145706.11654    68.27008    61.90725     0.01852
      2124 145822.68143    67.54301    67.37806     0.01676
      2125 145939.33958    66.89230    70.38615     0.01680
      2126 146056.09105    66.30740    54.12596     0.01932
      2127 146172.93592    65.77955    68.66666     0.01671
      2128 146289.87427    65.30142    53.51716     0.01850
      2129 146406.90617    64.86684    51.67488     0.02038
      2130 146524.03170    64.47072    88.41047     0.01487
      2131 146641.25092    64.10862    62.30267     0.01640
      2132 146758.56392    63.77655    78.19826     0.01655
      2133 146875.97077    63.47126    63.54434     0.01626
      2134 146993.47155    63.18993    53.28537     0.01761
      2135 147111.06633    62.93010    68.82891     0.01595
      2136 147228.75518    62.68969    57.79984     0.01642
      2137 147346.53818    62.46685    58.63160     0.01720
      2138 147464.41541    62.25987    61.82832     0.01682
      2139 147582.38695    62.06730    59.69425     0.01592
      2140 147700.45286    61.88787    61.38211     0.01709
      2141 147818.61322    61.72045    56.78618     0.01949
      2142 147936.86811    61.56403    65.37142     0.01758
      2143 148055.21760    61.41772    57.61067     0.01676
      2144 148173.66178    61.26118    72.65207     0.01556
      2145 148292.20071    60.19308    70.92751     0.01627
      2146 148410.83447    59.67809    63.78627     0.01662
      2147 148529.56314    59.54325    81.22768     0.01450
      2148 148648.38679    59.47260    68.93531     0.01814
      2149 148767.30550    59.41569    57.02076     0.01749
      2150 148886.31934    59.36478    48.00151     0.01730
      2151 149005.42840    59.31733    44.86486     0.01970
      2152 149124.63274    59.27313    60.70844     0.01894
      2153 149243.93244    59.23197    64.79755     0.01697
      2154 149363.32759    59.19367    63.92744     0.01833
      2155 149482.81825    59.15806    55.27078     0.01685
      2156 149602.40451    59.12496    65.19687     0.01595
      2157 149722.08643    58.83617    56.73766     0.01717
      2158 149841.86410    58.29077    40.71326     0.01844
      2159 149961.73759    58.21313    59.15941     0.01610
      2160 150081.70698    58.20338    55.94763     0.01851
      2161 150201.77235    58.20573    64.50359     0.01706
      2162 150321.93376    58.21151    62.83362     0.01606
      2163 150442.19131    58.21782    55.46911     0.01697
      2164 150562.54506    58.22468    70.23204     0.01553
      2165 150682.99510    58.23209    63.09598     0.01571
      2166 150803.54150    58.24006    59.67490     0.01697
      2167 150924.18433    58.24858    51.62593     0.01675
      2168 151044.92368    58.25767    47.96556     0.01715
      2169 151165.75962    58.26732    55.71733     0.01694
      2170 151286.69222    58.27754    64.55847     0.01508
      2171 151407.72158    58.28833    55.82019     0.01676
      2172 151528.84776    58.29970    42.51472     0.01867
      2173 151650.07083    58.31165    54.68992     0.01721
      2174 151771.39089    58.32418    57.71144     0.01580
      2175 151892.80800    58.33729    68.27364     0.01642
      2176 152014.32225    58.35099    63.82859     0.01597
      2177 152135.93371    58.36528    59.22861     0.01766
      2178 152257.64245    58.38016    53.97762     0.01642
      2179 152379.44857    58.39563    65.19486     0.01516
      2180 152501.35213    58.41170    62.15042     0.01659
      2181 152623.35321    58.42836    53.46013     0.01831
      2182 152745.45189    58.44561    68.32229     0.01511
      2183 152867.64825    58.46346    51.39280     0.01663
      2184 152989.94237    58.48191    51.18261     0.01739
      2185 153112.33433    58.50095    56.81271     0.01753
      2186 153234.82419    58.52059    57.11016     0.01845
      2187 153357.41205    58.54082    61.91236     0.01792
      2188 153480.09798    58.56165    54.27553     0.01775
      2189 153602.88206    58.58307    58.73247     0.01671
      2190 153725.76437    58.60508    63.74093     0.01571
      2191 153848.74498    58.62768    49.24810     0.01599
      2192 153971.82397    58.65087    68.25215     0.01497
      2193 154095.00143    58.67464    60.34186     0.01558
      2194 154218.27743    58.69899    55.26300     0.01711
      2195 154341.65206    58.72391    53.22283     0.01724
      2196 154465.12538    58.74941    56.17860     0.01631
      2197 154588.69748    58.77547    61.14069     0.01571
      2198 154712.36844    58.80209    56.45624     0.01592
      2199 154836.13833    58.82927    72.67443     0.01603
      2200 154960.00724    58.85700    57.15681     0.01576
      2201 155083.97525    58.88527    57.29607     0.01713
      2202 155208.04243    58.91407    60.97250     0.01559
      2203 155332.20886    58.94341    67.78945     0.01569
      2204 155456.47463    58.97326    58.66688     0.01642
      2205 155580.83981    59.00362    55.99602     0.01666
      2206 155705.30448    59.03448    59.61848     0.01532
      2207 155829.86872    59.06582    57.35967     0.01587
      2208 155954.53262    59.09765    57.40689     0.01584
      2209 156079.29624    59.12994    55.44521     0.01556
      2210 156204.15968    59.16269    50.53506     0.01622
      2211 156329.12301    59.19587    59.41357     0.01511
      2212 156454.18631    59.22949    65.51559     0.01332
      2213 156579.34966    59.26351    55.36088     0.01655
      2214 156704.61314    59.29793    44.01267     0.01576
      2215 156829.97683    59.33273    40.53807     0.01682
      2216 156955.44081    59.36789    59.12181     0.01397
      2217 157081.00516    59.40339    60.55820     0.01596
      2218 157206.66996    59.43922    53.51396     0.01492
      2219 157332.43530    59.47535    66.25260     0.01515
      2220 157458.30125    59.51177    55.53610     0.01538
      2221 157584.26789    59.54845    61.88573     0.01557
      2222 157710.33530    59.58537    60.88472     0.01402
      2223 157836.50357    59.62251    62.57353     0.01676
      2224 157962.77278    59.65983    53.71397     0.01604
      2225 158089.14299    59.69732    68.56524     0.01617
      2226 158215.61431    59.73495    62.93658     0.01534
      2227 158342.18680    59.77269    66.02170     0.01548
      2228 158468.86055    59.81050    56.68272     0.01343
      2229 158595.63564    59.84837    51.93827     0.01587
      2230 158722.51215    59.88625    72.48047     0.01328
      2231 158849.49016    59.92411    62.94946     0.01565
      2232 158976.56975    59.96193    65.66934     0.01509
      2233 159103.75100    59.99966    66.75693     0.01466
      2234 159231.03400    60.03726    65.56423     0.01612
      2235 159358.41883    60.07470    73.97131     0.01556
      2236 159485.90557    60.11194    61.31282     0.01705
      2237 159613.49429    60.14894    65.63388     0.01459
      2238 159741.18509    60.18565    69.20017     0.01564
      2239 159868.97803    60.22202    67.00474     0.01699
      2240 159996.87322    60.25802    60.21974     0.01513
      2241 160124.87072    60.29360    59.48055     0.01674
      2242 160252.97061    60.32870    64.92510     0.01392
      2243 160381.17299    60.36327    70.22439     0.01533
      2244 160509.47793    60.39726    79.42344     0.01444
      2245 160637.88551    60.43062    50.20390     0.01807
      2246 160766.39582    60.46328    72.02491     0.01516
      2247 160895.00893    60.49520    70.45570     0.01469
      2248 161023.72494    60.52631    58.12148     0.01646
      2249 161152.54392    60.55654    72.67556     0.01536
      2250 161281.46596    60.58584    59.84369     0.01763
      2251 161410.49113    60.61414    67.18398     0.01565
      2252 161539.61952    60.64136    57.18868     0.01711
      2253 161668.85122    60.66744    51.84762     0.01654
      2254 161798.18630    60.69230    65.56493     0.01586
      2255 161927.62485    60.71587    42.87061     0.01809
      2256 162057.16695    60.73807    54.76721     0.01676
      2257 162186.81268    60.75882    60.93343     0.01821
      2258 162316.56213    60.77803    51.99482     0.01707
      2259 162446.41538    60.79563    82.53256     0.01444
      2260 162576.37251    60.81152    48.50303     0.01834
      2261 162706.43361    60.82562    64.07116     0.01682
      2262 162836.59876    60.83782    55.01376     0.01800
      2263 162966.86804    60.84805    71.09430     0.01760
      2264 163097.24153    60.85618    56.37013     0.01740
      2265 163227.71932    60.86213    60.09599     0.01717
      2266 163358.30150    60.86580    47.47558     0.01994
      2267 163488.98814    60.86706    63.50859     0.01754
      2268 163619.77933    60.86581    60.84771     0.01828
      2269 163750.67516    60.86195    62.09760     0.01696
      2270 163881.67570    60.85534    55.88463     0.01877
      2271 164012.78104    60.84588    69.56793     0.01648
      2272 164143.99126    60.83343    63.71295     0.01867
      2273 164275.30645    60.81787    61.40495     0.01694
      2274 164406.72670    60.79907    59.16827     0.01805
      2275 164538.25208    60.77690    50.79103     0.01804
      2276 164669.88268    60.75122    58.99644     0.01696
      2277 164801.61859    60.72187    50.29504     0.01801
      2278 164933.45988    60.68873    62.84648     0.01780
      2279 165065.40665    60.65165    54.63869     0.01727
      2280 165197.45898    60.61045    60.96550     0.01761
      2281 165329.61694    60.56500    46.61954     0.01750
      2282 165461.88064    60.51513    62.71445     0.01754
      2283 165594.25014    60.46067    66.17308     0.01661
      2284 165726.72554    60.40145    46.44906     0.01916
      2285 165859.30692    60.33729    63.21190     0.01985
      2286 165991.99437    60.26803    54.10334     0.01925
      2287 166124.78796    60.19347    65.52315     0.01906
      2288 166257.68779    60.11342    64.57484     0.01884
      2289 166390.69394    60.02770    52.44354     0.01787
      2290 166523.80650    59.93610    56.80328     0.01828
      2291 166657.02554    59.83842    57.18116     0.01827
      2292 166790.35116    59.73445    59.53992     0.01770
      2293 166923.78345    59.62398    51.97617     0.02016
      2294 167057.32247    59.50679    54.42136     0.01757
      2295 167190.96833    59.38265    70.33801     0.01836
      2296 167324.72110    59.25133    66.06688     0.01870
      2297 167458.58088    59.11260    56.04978     0.01878
      2298 167592.54775    58.96622    49.34312     0.02207
      2299 167726.62178    58.81193    42.62233     0.01980
      2300 167860.80308    58.64948    51.09277     0.01965
      2301 167995.09172    58.47862    60.44542     0.01789
      2302 168129.48780    58.29908    59.53007     0.01771
      2303 168263.99139    58.11058    50.14241     0.01911
      2304 168398.60258    57.91284    61.75384     0.02030
      2305 168533.32146    57.70558    59.68183     0.01939
      2306 168668.14812    57.48851    58.30456     0.01926
      2307 168803.08264    57.26132    67.05327     0.01647
      2308 168938.12511    57.02372    60.98673     0.01851
      2309 169073.27561    56.77537    58.76330     0.01828
      2310 169208.53423    56.51597    62.35228     0.02098
      2311 169343.90105    56.24518    63.20361     0.01896
      2312 169479.37617    55.96267    65.68683     0.01764
      2313 169614.95967    55.66809    63.28892     0.01947
      2314 169750.65164    55.36109    49.37852     0.02062
      2315 169886.45216    55.04131    59.07050     0.01820
      2316 170022.36133    54.70837    58.32695     0.01746  
