data_d6_MAPbI3_130K
_chemical_name_common           'd6-methylammonium lead iodide'
_chemical_formula_sum            'C D6 I3 N Pb'
_chemical_formula_moiety         'I3 Pb, (C D3), (D3 N)'
_chemical_formula_weight         625.93
_exptl_crystal_colour            black
_exptl_crystal_description       powder
_publ_requested_journal          'Nature Communications'
_publ_section_title
; Structures and Phase Transitions of the Organic-Inorganic Hybrid 
 Perovskite Methyl Ammonium Lead Iodide
;
_publ_contact_author             'Pamela Whitfield'
_publ_contact_author_email       whitfieldps@ornl.gov
loop_
_publ_author_name        
'Whitfield, P.S.'
'Herron, N'
'Giuse, N'
'Page, K'
'Cheng, Y.Q.'
'Milas, I'
'Crawford, M.K.'
_diffrn_ambient_temperature      130
_cell_measurement_temperature    130
_pd_spec_mounting                '8mm diameter vanadium can'
_pd_spec_mount_mode              transmission
_pd_spec_shape                   cylinder
_cell_measurement_reflns_used    3501  
_diffrn_source                   'spallation source'
_diffrn_radiation_type           neutron
_diffrn_detector                 '6Li scintillation wavelength-shifting fibre'
_diffrn_measurement_device_type  'time-of-flight neutron powder diffractometer'
_pd_instr_location               'POWGEN diffractometer, SNS, ORNL (USA)'
_pd_meas_scan_method             tof
_pd_instr_dist_src/spec          60000
_pd_instr_dist_spec/detc         3000 #distance for 90deg detectors
# detector distances increase from 2.5 metres at backscattering to 
#  4.5 metres at forward scattering
_pd_meas_2theta_fixed            90 #data from all detectors focussed at 90deg 
_diffrn_measurement_method       'neutron time-event mode'
loop_
_diffrn_radiation_wavelength     
1.066
2.665
# 1 Angstrom bandwith with centre wavelengths of 1.066 and 2.665 Angstrom
loop_
_atom_type_symbol
_atom_type_scat_length_neutron
_atom_type_scat_source
C 0.6646 International_Tables_Vol_C
N 0.9360 International_Tables_Vol_C
Pb 0.9405 International_Tables_Vol_C
I 0.528 International_Tables_Vol_C
H -0.3739 International_Tables_Vol_C
D 0.6671 International_Tables_Vol_C
_diffrn_reflns_number            3501
_reflns_number_total             3501
_reflns_number_gt                ?
_reflns_threshold_expression     ?
_diffrn_reflns_theta_max         ?
_diffrn_reflns_limit_h_min       0
_diffrn_reflns_limit_h_max       15
_diffrn_reflns_limit_k_min       0
_diffrn_reflns_limit_k_max       22
_diffrn_reflns_limit_l_min       0
_diffrn_reflns_limit_l_max       15
_diffrn_standards_number         ?
_diffrn_standards_interval_count ?
_diffrn_standards_interval_time  ?
_diffrn_standards_decay_%        ?
_pd_proc_ls_special_details      
; co-refinement of 2 datasets with centre wavelengths 1.066 and 2.665A'
  Pb occupancy fixed at value from 10 K refinement of d6-MAPbI3
  Pb occupancy >1 presence of radiogenic Pb isotopes 
;
_computing_structure_solution    'TOPAS'
_computing_data_collection       'SNS pyDAS'
_computing_cell_refinement       'TOPAS'
_computing_data_reduction        'Mantid'
_pd_proc_ls_profile_function     'back-to-back exponentials with pseudo-Voigt'
_pd_proc_ls_background_function  'Chebychev polynomial with sinQ/Q function'
_refine_ls_structure_factor_coef Inet
_refine_ls_matrix_type           full
_refine_ls_weighting_scheme      'sigma'
_refine_ls_weighting_details
'w = 1/sigma\^2'
_refine_diff_density_max         ?
_refine_diff_density_min         ?
_refine_ls_number_reflns         3501
_pd_proc_ls_prof_wR_factor       0.0110
_refine_ls_wR_factor_ref         0.0110
_refine_ls_R_factor_gt           ?
_refine_ls_goodness_of_fit_all   2.04
_refine_ls_goodness_of_fit_ref   2.04
_refine_ls_hydrogen_treatment    refall
_refine_ls_number_parameters     93
_refine_ls_shift/su_max          0.377723226
_refine_ls_number_restraints     1
_restr_U_rigid_details           'TLS restraint for methylammonium'
_refine_ls_number_constraints    1
_atom_site_constraints    
; Pb occupancy fixed to value from 10K refinement of d6-MAPbI3
;
_cell_length_a                   8.85571(9)
_cell_length_b                   12.60967(15)
_cell_length_c                   8.57488(11)
_cell_angle_alpha                90
_cell_angle_beta                 90
_cell_angle_gamma                90
_cell_volume                     957.54(2)
_space_group_crystal_system      orthorhombic
_symmetry_space_group_name_H-M   'P n ma'
_symmetry_space_group_name_Hall  '-P 2ac 2n'
_symmetry_Int_Tables_number      62
_cell_formula_units_Z            4
_exptl_crystal_density_diffrn    4.353 
_exptl_absorpt_coefficient_mu    0
_exptl_absorpt_correction_type   cylinder
_exptl_absorpt_process_details  
'Lobanov, 6th EPDIC, Abstract.P12-16, Aug.22-25, 1998'
loop_
_symmetry_equiv_pos_as_xyz
	 'x, y, z '
	 '-x, y+1/2, -z '
	 '-x+1/2, -y, z+1/2 '
	 '-x+1/2, y+1/2, z+1/2 '
	 'x, -y+1/2, z '
	 '-x, -y, -z '
	 'x+1/2, -y+1/2, -z+1/2 '
	 'x+1/2, y, -z+1/2 '
loop_
_atom_site_label
_atom_site_type_symbol
_atom_site_fract_x
_atom_site_fract_y
_atom_site_fract_z
_atom_site_occupancy
_atom_site_symmetry_multiplicity
_atom_site_adp_type
_atom_site_U_iso_or_equiv
Pb1 Pb 0.5 0 0 1   4 Biso 0
I1 I 0.0138(5) 0.25 -0.5510(4) 1   4 Biso 0
I2 I 0.3093(2) 0.0174(3) -0.3125(3) 1   8 Biso 0
N1 N -0.0602(5) 0.25 0.0267(6) 1   4 Biso 0
C2 C 0.0763(6) 0.25 -0.0553(6) 1   4 Biso 0
D1 D 0.1381(4) 0.1829(4) -0.0302(5) 1   8 Biso 0
D2 D 0.0569(6) 0.25 -0.1734(6) 1   4 Biso 0
D3 D -0.1259(3) 0.3109(4) 0.0054(6) 1   8 Biso 0
D4 D -0.0476(7) 0.25 0.1439(7) 1   4 Biso 0
loop_
_atom_site_aniso_label
_atom_site_aniso_U_11
_atom_site_aniso_U_22
_atom_site_aniso_U_33
_atom_site_aniso_U_12
_atom_site_aniso_U_13
_atom_site_aniso_U_23
Pb1 0.0103(10) 0.0085(10) 0.0168(11) 0 0 0.0014(13)
I1 0.016(2) 0.0003(14) 0.029(3) 0 0.003(2) 0
I2 0.0130(14) 0.038(2) 0.0140(13) -0.0009(15) -0.0131(10) 0.0029(16)
N1 0.0346(18) 0.049(3) 0.059(3) -0.007(3) 0.0084(9) 0.0032(9)
C2 0.0322(17) 0.021(2) 0.0456(19) 0.003(2) 0.0026(4) -0.0022(4)
D1 0.077(4) 0.081(4) 0.105(6) 0.043(4) 0.0015(5) -0.0028(9)
D2 0.071(4) 0.081(4) 0.0431(18) 0.002(4) 0.0066(13) -0.0100(17)
D3 0.045(2) 0.102(6) 0.102(6) 0.036(3) 0.0081(10) -0.0056(9)
D4 0.080(4) 0.116(6) 0.054(2) -0.006(5) 0.025(2) 0.011(3)
loop_
	_geom_bond_atom_site_label_1
	_geom_bond_atom_site_label_2
	_geom_bond_distance
	_geom_bond_site_symmetry_1
	_geom_bond_site_symmetry_2
	Pb1       I2        3.175(2) 1_555   1_555
	Pb1       I2        3.184(2) 1_555   3_555
	Pb1       I1        3.1850(4) 1_555   7_554
	I1        D4        2.672(7) 1_555   1_554
	I2        D3        2.785(6) 1_555   7_554
	I2        D1        3.175(6) 1_555   3_554
	I2        Pb1       3.184(2) 1_555   3_554
	N1        D3        0.980(5) 1_555   1_555
	N1        D4        1.012(8) 1_555   1_555
	N1        C2        1.399(7) 1_555   1_555
	C2        D2        1.026(7) 1_555   1_555
	C2        D1        1.030(5) 1_555   1_555
	D1        I2        3.175(6) 1_555   3_555
	D2        C2        1.026(7) 1_555   1_555
	D4        N1        1.012(8) 1_555   1_555
	D4        D1        2.377(7) 1_555   1_555
	D4        I1        2.672(7) 1_555   1_556
loop_
	_geom_angle_atom_site_label_1
	_geom_angle_atom_site_label_2
	_geom_angle_atom_site_label_3
	_geom_angle
	_geom_angle_site_symmetry_1
	_geom_angle_site_symmetry_2
	_geom_angle_site_symmetry_3
	I2        Pb1       I2         180.00000000(3)  6_655 1_555   1_555
	I2        Pb1       I2         91.53(2)  3_555 1_555   6_655
	I2        Pb1       I2         88.47(2)  3_555 1_555   1_555
	I1        Pb1       I2         88.18(10)  7_554 1_555   8_554
	I1        Pb1       I2         91.82(10)  7_554 1_555   3_555
	I1        Pb1       I2         86.11(9)  7_554 1_555   6_655
	I1        Pb1       I2         93.89(9)  7_554 1_555   1_555
	Pb1       I1        Pb1        163.60(12)  4_554 1_555   3_554
	D3        N1        D3         103.1(6)  5_555 1_555   1_555
	D4        N1        D3         104.5(5)  1_555 1_555   5_555
	C2        N1        D4         113.9(5)  1_555 1_555   1_555
	C2        N1        D3         114.8(4)  1_555 1_555   5_555
	D1        C2        D2         107.2(5)  1_555 1_555   1_555
	D1        C2        D1         110.4(7)  5_555 1_555   1_555
	N1        C2        D2         110.6(6)  1_555 1_555   1_555
	D4        C2        D2         137.7(6)  1_555 1_555   1_555
	I2        D3        N1         147.3(4)  7_454 1_555   1_555
	I1        D4        N1         174.6(3)  1_556 1_555   1_555

data_d6_MAPbI3_130K_p_01
_diffrn_radiation_wavelength     1.066
# 1 Angstrom bandwith with centre wavelengths of 1.066 Angstrom 
loop_
_refln_index_h
_refln_index_k
_refln_index_l
_refln_d_spacing
_refln_F_squared_calc
_refln_F_squared_meas 
   0   0   2     4.28744  1608.54204  1616.73993 
   0   0   4     2.14372   722.36763   720.43174 
   0   0   6     1.42915   895.17462   902.64657 
   0   0   8     1.07186    24.29283    24.11459 
   0   0  10     0.85749    35.89018    35.35306 
   0   0  12     0.71457    16.07392    16.01564 
   0   0  14     0.61249     0.17430     0.17502 
   0   1   3     2.78757    13.06114    13.32648 
   0   1   5     1.69933     0.00035     0.00035 
   0   1   7     1.21924    10.15613     9.97007 
   0   1   9     0.95006    90.10876    89.12010 
   0   1  11     0.77805     4.31977     4.42943 
   0   1  13     0.65871     4.23444     4.29761 
   0   1  15     0.57107     0.76180     0.77216 
   0   2   2     3.54536  1488.72207  1523.84671 
   0   2   4     2.02961    16.20411    15.86053 
   0   2   6     1.39379    34.11302    33.42067 
   0   2   8     1.05670    23.08338    23.05189 
   0   2  10     0.84967   637.34073   643.96133 
   0   2  12     0.71003    91.24944    92.54408 
   0   2  14     0.60962     2.87775     2.88506 
   0   3   1     3.77419    16.31299    15.90148 
   0   3   3     2.36357    23.36471    24.62415 
   0   3   5     1.58789     4.91738     4.83888 
   0   3   7     1.17605    19.81464    19.37136 
   0   3   9     0.92919    24.63284    24.86507 
   0   3  11     0.76646    16.39381    16.62967 
   0   3  13     0.65163     1.26921     1.27240 
   0   3  15     0.56644     3.59920     3.59511 
   0   4   0     3.15242  2744.04017  2754.23683 
   0   4   2     2.53978   474.35308   462.18268 
   0   4   4     1.77268   241.91900   241.50654 
   0   4   6     1.30163   770.89774   793.74409 
   0   4   8     1.01480    74.29206    75.08842 
   0   4  10     0.82742    45.24482    46.47456 
   0   4  12     0.69689    30.32536    30.02870 
   0   4  14     0.60125     0.01012     0.01016 
   0   5   1     2.41946    31.14660    30.83051 
   0   5   3     1.89107   187.13689   198.35942 
   0   5   5     1.41814   122.24512   120.01860 
   0   5   7     1.10187     2.55660     2.64485 
   0   5   9     0.89128   197.68292   210.06770 
   0   5  11     0.74477     0.46949     0.47257 
   0   5  13     0.63814     5.87865     5.89633 
   0   5  15     0.55751     8.72465     8.63828 
   0   6   0     2.10161     4.02924     4.10644 
   0   6   2     1.88709    30.33470    32.12626 
   0   6   4     1.50073   385.38051   382.96226 
   0   6   6     1.18179   335.97053   323.12873 
   0   6   8     0.95484   140.70313   141.00426 
   0   6  10     0.79394   496.98921   495.37482 
   0   6  12     0.67654    98.42196   100.22822 
   0   6  14     0.58803     7.66359     7.70874 
   0   7   1     1.76290    96.39513    99.90458 
   0   7   3     1.52398    50.38884    52.72878 
   0   7   5     1.24209    44.88546    44.46717 
   0   7   7     1.01296   125.17266   125.77108 
   0   7   9     0.84222     0.84059     0.84836 
   0   7  11     0.71542    21.12163    20.99630 
   0   7  13     0.61939     0.07100     0.07128 
   0   8   0     1.57621   701.56524   716.80323 
   0   8   2     1.47940    74.10963    73.76904 
   0   8   4     1.26989    41.24870    43.68128 
   0   8   6     1.05874   219.29783   218.18782 
   0   8   8     0.88634    30.77158    30.59197 
   0   8  10     0.75324    17.39787    17.61142 
   0   8  12     0.65082    27.36635    27.46044 
   0   8  14     0.57090     2.97850     3.01964 
   0   9   1     1.38274    58.45011    57.26683 
   0   9   3     1.25806   127.83899   138.90349 
   0   9   5     1.08502   119.03679   122.11065 
   0   9   7     0.92221     7.36900     7.19740 
   0   9   9     0.78786   154.45322   154.88886 
   0   9  11     0.68120     0.23003     0.23132 
   0   9  13     0.59678     5.67919     5.68987 
   0  10   0     1.26097     9.04741     9.74018 
   0  10   2     1.20973     0.03252     0.03256 
   0  10   4     1.08688   119.23370   123.87424 
   0  10   6     0.94554   227.01218   219.51179 
   0  10   8     0.81668   206.85656   208.45936 
   0  10  10     0.70907   287.45158   290.16118 
   0  10  12     0.62169    98.02415    99.52147 
   0  11   1     1.13623    58.51987    59.44991 
   0  11   3     1.06396     0.59974     0.58554 
   0  11   5     0.95303     3.57235     3.55633 
   0  11   7     0.83700    77.87149    80.67286 
   0  11   9     0.73272     6.14393     6.06774 
   0  11  11     0.64461     8.75944     8.85789 
   0  11  13     0.57172     0.00701     0.00710 
   0  12   0     1.05081   814.47132   819.43727 
   0  12   2     1.02060   725.08692   722.32136 
   0  12   4     0.94355   283.05354   275.03454 
   0  12   6     0.84659   144.89548   142.89183 
   0  12   8     0.75036     0.22616     0.23346 
   0  12  10     0.66436     5.07967     5.04493 
   0  12  12     0.59089    22.29818    22.27855 
   0  13   1     0.96383    46.60917    46.59228 
   0  13   3     0.91853    31.17744    30.55877 
   0  13   5     0.84429    43.54588    43.37118 
   0  13   7     0.76045     7.19026     7.33684 
   0  13   9     0.67971    68.14083    68.95091 
   0  13  11     0.60763     0.50467     0.50937 
   0  14   0     0.90069    74.38957    76.53487 
   0  14   2     0.88145    28.12315    28.12571 
   0  14   4     0.83038    15.25841    15.34670 
   0  14   6     0.76199   124.44247   125.84532 
   0  14   8     0.68956   228.39674   227.87014 
   0  14  10     0.62105   163.79417   165.65716 
   0  14  12     0.55980    86.14974    87.03475 
   0  15   1     0.83663    27.43014    28.43263 
   0  15   3     0.80649     0.15430     0.15269 
   0  15   5     0.75484     2.11885     2.19845 
   0  15   7     0.69313    42.72405    42.52891 
   0  15   9     0.63036     4.71492     4.72244 
   0  15  11     0.57160     1.01583     1.02921 
   0  16   0     0.78810   436.94773   437.56943 
   0  16   2     0.77512   654.04263   657.78390 
   0  16   4     0.73970   232.80324   232.10488 
   0  16   6     0.69013    54.70971    54.48394 
   0  16   8     0.63494     7.55290     7.57290 
   0  16  10     0.58025     0.85998     0.86563 
   0  17   1     0.73899     7.49672     7.45620 
   0  17   3     0.71796    24.62225    24.47863 
   0  17   5     0.68080    38.36475    38.68803 
   0  17   7     0.63449     0.30783     0.30904 
   0  17   9     0.58529    26.13615    26.30350 
   0  18   0     0.70054    20.82466    20.86888 
   0  18   2     0.69137     0.07323     0.07280 
   0  18   4     0.66588    28.69461    28.60745 
   0  18   6     0.62903   111.07918   110.75509 
   0  18   8     0.58640   214.71871   216.82748 
   0  19   1     0.66169    12.21744    12.42072 
   0  19   3     0.64647     6.92921     6.99251 
   0  19   5     0.61894    10.14745    10.19358 
   0  19   7     0.58353    24.05672    24.05111 
   0  20   0     0.63048   217.42495   217.83836 
   0  20   2     0.62378   398.74191   403.83501 
   0  20   4     0.60487   138.07298   139.28875 
   0  20   6     0.57684    20.93711    21.10477 
   0  21   1     0.59899     0.05333     0.05357 
   0  21   3     0.58763    23.62242    23.76704 
   0  21   5     0.56673    35.12860    34.99842 
   0  22   0     0.57317     8.27800     8.36236 
   0  22   2     0.56811     0.37779     0.38107 
   0  22   4     0.55372    26.81570    26.90784 
   1   0   2     3.85896    32.23024    34.37821 
   1   0   3     2.72012    35.75927    35.10844 
   1   0   4     2.08354   636.79001   650.32835 
   1   0   5     1.68369   127.20072   129.31010 
   1   0   6     1.41089     0.95138     0.94041 
   1   0   7     1.21343     0.44262     0.43627 
   1   0   8     1.06409    66.38548    64.78381 
   1   0   9     0.94730   206.23661   199.60190 
   1   0  10     0.85350    70.99434    71.26675 
   1   0  11     0.77653     9.16426     9.30145 
   1   0  12     0.71226    77.23589    78.28425 
   1   0  13     0.65778    70.12541    70.96417 
   1   0  14     0.61103    25.79805    25.86751 
   1   0  15     0.57047    29.36777    29.76945 
   1   1   2     3.69003   131.07198   124.69823 
   1   1   3     2.65895    18.28639    18.34081 
   1   1   4     2.05567   101.98720   102.01334 
   1   1   5     1.66888    42.27164    43.09788 
   1   1   6     1.40214   348.23092   347.83745 
   1   1   7     1.20785    61.55457    61.65720 
   1   1   8     1.06032     0.40650     0.40153 
   1   1   9     0.94464    35.80969    34.72432 
   1   1  10     0.85155   110.99216   112.13877 
   1   1  11     0.77506     1.32107     1.32815 
   1   1  12     0.71112     6.16065     6.23298 
   1   1  13     0.65689     1.22875     1.23256 
   1   1  14     0.61032    15.29353    15.37173 
   1   1  15     0.56989     0.53057     0.53666 
   1   2   1     4.40618  5327.72075  5328.21348 
   1   2   2     3.29139  1141.52465  1073.13883 
   1   2   3     2.49759  1307.78817  1332.30638 
   1   2   4     1.97832    47.56732    45.67004 
   1   2   5     1.62669  1106.16625  1124.10437 
   1   2   6     1.37684   609.75161   598.30267 
   1   2   7     1.19156  1060.76309  1045.90695 
   1   2   8     1.04925    88.10642    88.18412 
   1   2   9     0.93678   193.46030   190.29355 
   1   2  10     0.84578    70.41338    69.60823 
   1   2  11     0.77071    78.24483    80.64689 
   1   2  12     0.70776   136.73307   135.64199 
   1   2  13     0.65423   203.53905   203.38531 
   1   2  14     0.60818    54.42706    54.68160 
   1   2  15     0.56815    37.82553    38.15731 
   1   3   1     3.47202     1.15270     1.12352 
   1   3   2     2.84263    38.62685    36.52913 
   1   3   3     2.28363   147.22650   149.00319 
   1   3   4     1.86678    85.79565    85.66828 
   1   3   5     1.56296     6.26129     6.17100 
   1   3   6     1.33755   160.87002   158.08361 
   1   3   7     1.16582    82.52905    81.74728 
   1   3   8     1.03155     0.79374     0.77875 
   1   3   9     0.92412    40.71055    39.78666 
   1   3  10     0.83643    77.80457    80.61998 
   1   3  11     0.76361    17.72634    17.93209 
   1   3  12     0.70225    25.17388    25.22319 
   1   3  13     0.64987    11.06549    11.13524 
   1   3  14     0.60468     9.38641     9.46798 
   1   3  15     0.56529     2.01036     2.02044 
   1   4   1     2.80631    74.81702    77.05068 
   1   4   2     2.44136     0.19569     0.20206 
   1   4   3     2.05943  1170.98033  1178.25580 
   1   4   4     1.73820   476.03596   481.89471 
   1   4   5     1.48514     6.36214     6.50238 
   1   4   6     1.28780    23.33370    24.49212 
   1   4   7     1.13243    72.16407    72.43530 
   1   4   8     1.00821    38.34645    38.01639 
   1   4   9     0.90722   416.08084   444.06779 
   1   4  10     0.82384    78.46693    79.47868 
   1   4  11     0.75399    25.99340    26.63282 
   1   4  12     0.69475   117.96439   116.91406 
   1   4  13     0.64392   124.58258   126.33901 
   1   4  14     0.59987    33.01435    33.10438 
   1   4  15     0.56135    58.26568    59.29024 
   1   5   1     2.33393    72.26411    70.32927 
   1   5   2     2.11109    72.90605    70.08118 
   1   5   3     1.84937     7.57533     7.55852 
   1   5   4     1.60627     0.00230     0.00226 
   1   5   5     1.40030    98.19926    98.48420 
   1   5   6     1.23130   164.37757   162.13826 
   1   5   7     1.09344     0.02697     0.02812 
   1   5   8     0.98040     0.58312     0.61636 
   1   5   9     0.88680     1.09625     1.09019 
   1   5  10     0.80845   121.87745   121.24343 
   1   5  11     0.74215    20.08822    19.98405 
   1   5  12     0.68545     0.96535     0.96034 
   1   5  13     0.63649    29.06872    29.23813 
   1   5  14     0.59385    20.20396    20.23960 
   1   5  15     0.55641     5.22467     5.18659 
   1   6   1     1.98905   450.27908   426.31220 
   1   6   2     1.84565   287.74185   283.83041 
   1   6   3     1.66306    25.76963    25.78091 
   1   6   4     1.47963   183.19801   182.59157 
   1   6   5     1.31401   207.92769   206.60691 
   1   6   6     1.17140   111.24987   106.68182 
   1   6   7     1.05085   459.98135   462.80521 
   1   6   8     0.94934    12.04448    11.86478 
   1   6   9     0.86362   158.98304   156.90343 
   1   6  10     0.79077    59.38061    58.63175 
   1   6  11     0.72840    96.45028    97.15979 
   1   6  12     0.67457    58.79201    59.55102 
   1   6  13     0.62775   160.29521   159.97048 
   1   6  14     0.58674    25.81825    26.05108 
   1   7   1     1.72898     0.15457     0.15463 
   1   7   2     1.63230     7.74634     7.81831 
   1   7   3     1.50190   219.16909   217.24096 
   1   7   4     1.36269    62.38511    62.71974 
   1   7   5     1.23005    93.01146    91.07235 
   1   7   6     1.11075    35.04889    36.52995 
   1   7   7     1.00640    42.35631    41.94067 
   1   7   8     0.91619     1.58938     1.57311 
   1   7   9     0.83843    21.07489    21.49489 
   1   7  10     0.77130    34.81683    35.80399 
   1   7  11     0.71310    57.18213    57.81481 
   1   7  12     0.66236    47.81143    48.51442 
   1   7  13     0.61788    32.30102    32.29287 
   1   7  14     0.57865     6.65477     6.70601 
   1   8   1     1.52702   279.65340   289.94698 
   1   8   2     1.45918     5.39356     5.44551 
   1   8   3     1.36379  1369.52702  1373.05147 
   1   8   4     1.25703    81.33961    87.69037 
   1   8   5     1.15067   177.12181   171.22429 
   1   8   6     1.05126    21.47141    21.59636 
   1   8   7     0.96151   157.29837   159.28924 
   1   8   8     0.88193     2.98116     2.97415 
   1   8   9     0.81194   285.05609   281.06493 
   1   8  10     0.75053    20.97218    21.62064 
   1   8  11     0.69658    38.72469    38.36269 
   1   8  12     0.64907    43.11513    43.40598 
   1   8  13     0.60704    88.02987    88.81174 
   1   8  14     0.56972     6.98309     7.05925 
   1   9   1     1.36619    31.80447    31.53444 
   1   9   2     1.31696   146.83345   146.78105 
   1   9   3     1.24556    67.72065    68.49665 
   1   9   4     1.16265    11.23039    11.23877 
   1   9   5     1.07697   109.86129   109.10596 
   1   9   6     0.99416   170.55240   180.08731 
   1   9   7     0.91725     7.37845     7.26117 
   1   9   8     0.84740     4.23761     4.18036 
   1   9   9     0.78476     1.13967     1.13525 
   1   9  10     0.72890    66.59695    66.91895 
   1   9  11     0.67919    38.46857    38.76047 
   1   9  12     0.63492     0.24232     0.24296 
   1   9  13     0.59543    42.76876    42.63681 
   1   9  14     0.56009    18.70326    18.91979 
   1  10   1     1.23535   563.87346   563.62711 
   1  10   2     1.19860    89.81360    88.03877 
   1  10   3     1.14402   211.95867   214.61565 
   1  10   4     1.07879    11.28182    11.07534 
   1  10   5     1.00929   317.81054   315.84651 
   1  10   6     0.94019    40.83538    39.15462 
   1  10   7     0.87435   350.29742   347.88346 
   1  10   8     0.81323    10.19347    10.08434 
   1  10   9     0.75738   190.01000   194.79227 
   1  10  10     0.70681    14.86592    14.66956 
   1  10  11     0.66121   131.43073   133.73687 
   1  10  12     0.62016     9.16810     9.18080 
   1  10  13     0.58320   111.25510   111.17250 
   1  11   1     1.12699    33.28491    34.83098 
   1  11   2     1.09887    54.88314    56.85628 
   1  11   3     1.05636   112.03916   111.75173 
   1  11   4     1.00436   218.37066   216.88028 
   1  11   5     0.94756    85.05486    82.48131 
   1  11   6     0.88969    65.61769    67.63972 
   1  11   7     0.83329    33.75726    34.66247 
   1  11   8     0.77988     3.18182     3.23045 
   1  11   9     0.73023    19.84454    19.73788 
   1  11  10     0.68459     7.44296     7.40281 
   1  11  11     0.64291    43.49667    43.67739 
   1  11  12     0.60499    49.80419    50.23483 
   1  11  13     0.57053    30.66474    31.08668 
   1  12   1     1.03584    49.72309    47.48452 
   1  12   2     1.01389    12.54325    12.67080 
   1  12   3     0.98021   272.07147   287.47535 
   1  12   4     0.93824    55.53179    54.00571 
   1  12   5     0.89144    96.43913   102.54854 
   1  12   6     0.84275    11.25289    11.32591 
   1  12   7     0.79435    97.49101    96.83103 
   1  12   8     0.74769     4.15623     4.30502 
   1  12   9     0.70360   133.02089   132.50725 
   1  12  10     0.66250     3.94235     3.99820 
   1  12  11     0.62451    44.99381    45.67461 
   1  12  12     0.58958     4.42485     4.43828 
   1  12  13     0.55755    53.68043    53.13126 
   1  13   1     0.95817     0.90820     0.91053 
   1  13   2     0.94071   199.15194   191.17553 
   1  13   3     0.91362    72.99972    73.35186 
   1  13   4     0.87935    93.29086    93.82239 
   1  13   5     0.84048    75.46001    76.26874 
   1  13   6     0.79930   194.55202   188.88481 
   1  13   7     0.75766     1.88592     1.93358 
   1  13   8     0.71685    20.84479    20.68856 
   1  13   9     0.67772     0.61108     0.61708 
   1  13  10     0.64076    21.93231    22.38692 
   1  13  11     0.60620    31.27182    31.39184 
   1  13  12     0.57410     0.72306     0.73166 
   1  14   1     0.89122   546.22241   580.24974 
   1  14   2     0.87712    30.77631    30.70641 
   1  14   3     0.85504   330.61193   329.72734 
   1  14   4     0.82675    26.79217    27.34699 
   1  14   5     0.79419   357.52586   355.72851 
   1  14   6     0.75918    20.15821    20.73092 
   1  14   7     0.72323   282.17330   284.59924 
   1  14   8     0.68748    11.42046    11.31292 
   1  14   9     0.65274   200.40950   201.11791 
   1  14  10     0.61953     0.39967     0.40090 
   1  14  11     0.58813   149.60734   150.46473 
   1  14  12     0.55868     0.04909     0.04882 
   1  15   1     0.83293    24.09357    24.71390 
   1  15   2     0.82138    67.96095    67.93782 
   1  15   3     0.80316    41.07798    40.08617 
   1  15   4     0.77958   226.12044   230.19328 
   1  15   5     0.75211    28.43461    28.73387 
   1  15   6     0.72217    71.89186    72.21132 
   1  15   7     0.69102    16.43654    16.34179 
   1  15   8     0.65964     6.73264     6.81748 
   1  15   9     0.62877    11.37966    11.34672 
   1  15  10     0.59892     2.64356     2.65656 
   1  15  11     0.57041    17.41110    17.64753 
   1  16   1     0.78173   189.63391   191.93555 
   1  16   2     0.77217    21.72231    22.22980 
   1  16   3     0.75697   209.79823   215.47892 
   1  16   4     0.73713    13.14258    13.24444 
   1  16   5     0.71378   140.18658   140.68678 
   1  16   6     0.68804    25.37192    25.17357 
   1  16   7     0.66094    77.60175    78.93621 
   1  16   8     0.63332     1.74335     1.75352 
   1  16   9     0.60585    61.48772    61.72994 
   1  16  10     0.57901     0.00350     0.00352 
   1  17   1     0.73643     0.61981     0.62813 
   1  17   2     0.72841   129.78377   130.73282 
   1  17   3     0.71562    20.47700    20.35547 
   1  17   4     0.69878   120.35256   119.77520 
   1  17   5     0.67879    27.51171    27.64017 
   1  17   6     0.65654   139.71802   140.00544 
   1  17   7     0.63287     0.07692     0.07711 
   1  17   8     0.60850    22.92751    22.95695 
   1  17   9     0.58401     0.39520     0.39556 
   1  17  10     0.55986     5.24128     5.29699 
   1  18   1     0.69605   146.83274   145.27519 
   1  18   2     0.68927     3.19929     3.19222 
   1  18   3     0.67840   127.31944   127.97274 
   1  18   4     0.66401    28.41807    28.23144 
   1  18   5     0.64679   213.83673   216.10970 
   1  18   6     0.62745     2.43996     2.44193 
   1  18   7     0.60669   206.49679   207.84519 
   1  18   8     0.58512     3.86324     3.88287 
   1  18   9     0.56325   182.52246   185.21968 
   1  19   1     0.65985     3.65621     3.70239 
   1  19   2     0.65406    59.89750    59.84408 
   1  19   3     0.64475    10.77307    10.88372 
   1  19   4     0.63236   164.59266   164.68578 
   1  19   5     0.61743     4.13978     4.14700 
   1  19   6     0.60054    69.19506    69.41339 
   1  19   7     0.58227     3.49162     3.46135 
   1  19   8     0.56312     7.38233     7.49277 
   1  20   1     0.62721   339.73578   341.07648 
   1  20   2     0.62223    11.56186    11.71252 
   1  20   3     0.61420   234.16659   235.15593 
   1  20   4     0.60346     1.23388     1.24626 
   1  20   5     0.59044   144.47052   144.46041 
   1  20   6     0.57562    13.65297    13.69114 
   1  20   7     0.55947    51.98088    52.34546 
   1  21   1     0.59763     0.17449     0.17523 
   1  21   2     0.59332    88.40974    88.68371 
   1  21   3     0.58634     2.63378     2.65963 
   1  21   4     0.57698   135.07097   136.04635 
   1  21   5     0.56557     4.74334     4.75586 
   1  22   1     0.57070    36.16915    36.67213 
   1  22   2     0.56695     0.47224     0.47030 
   1  22   3     0.56085    53.72113    54.50819 
   2   0   0     4.42786   712.73950   691.65921 
   2   0   1     3.93429    54.50355    53.13258 
   2   0   2     3.08012  1068.35416  1082.28987 
   2   0   3     2.40141   565.86611   553.18642 
   2   0   4     1.92948   155.73918   164.89491 
   2   0   5     1.59921   250.98197   247.77960 
   2   0   6     1.36006   133.61475   134.98401 
   2   0   7     1.18063    35.45395    34.40498 
   2   0   8     1.04177   161.26007   153.18785 
   2   0   9     0.93144   168.52780   169.33699 
   2   0  10     0.84185    23.58717    23.82827 
   2   0  11     0.76773     2.34438     2.40993 
   2   0  12     0.70545    45.40887    44.73335 
   2   0  13     0.65241     8.02657     8.05286 
   2   0  14     0.60671    70.53974    71.01219 
   2   0  15     0.56695    21.83735    21.74738 
   2   1   0     4.17777     1.77203     1.85627 
   2   1   1     3.75573    30.48875    30.08335 
   2   1   2     2.99215    53.31358    52.70864 
   2   1   3     2.35902   215.87469   226.43770 
   2   1   4     1.90728    68.58127    71.46672 
   2   1   5     1.58651   106.07005   105.04628 
   2   1   6     1.35222   132.47015   135.06572 
   2   1   7     1.17549    54.21631    53.01757 
   2   1   8     1.03823   235.42042   225.63565 
   2   1   9     0.92891    93.10825    93.62366 
   2   1  10     0.83998    35.15086    35.53013 
   2   1  11     0.76631     6.07968     6.16019 
   2   1  12     0.70434     0.01550     0.01538 
   2   1  13     0.65154     6.58838     6.60479 
   2   1  14     0.60601     0.25423     0.25517 
   2   1  15     0.56638     0.84090     0.84047 
   2   2   0     3.62353   957.64461   992.16110 
   2   2   1     3.33775  1239.69248  1212.99614 
   2   2   2     2.76752   283.68183   292.05844 
   2   2   3     2.24414   357.78500   346.04761 
   2   2   4     1.84502   334.83028   329.57384 
   2   2   5     1.55012    34.31650    34.59030 
   2   2   6     1.32948     0.00136     0.00132 
   2   2   7     1.16046   871.22833   873.75817 
   2   2   8     1.02783  1438.93456  1429.09712 
   2   2   9     0.92144     5.79158     5.64598 
   2   2  10     0.83444   212.01727   217.90992 
   2   2  11     0.76210     3.49540     3.53372 
   2   2  12     0.70107   204.63396   205.87030 
   2   2  13     0.64894    24.91595    25.08483 
   2   2  14     0.60392   198.53542   199.95138 
   2   2  15     0.56467    44.02172    44.48527 
   2   3   0     3.04845     5.53422     5.66535 
   2   3   1     2.87233     2.56400     2.61613 
   2   3   2     2.48446   132.18401   131.01626 
   2   3   3     2.08510   261.43168   268.25799 
   2   3   4     1.75355    43.76400    43.97816 
   2   3   5     1.49468   128.03922   129.88360 
   2   3   6     1.29400    19.47883    19.64684 
   2   3   7     1.13665     2.84063     2.88602 
   2   3   8     1.01118   303.39515   302.97858 
   2   3   9     0.90938   185.15987   196.06707 
   2   3  10     0.82545     3.09791     3.12942 
   2   3  11     0.75523     0.40123     0.41713 
   2   3  12     0.69572     0.46131     0.45557 
   2   3  13     0.64469    10.19521    10.30451 
   2   3  14     0.60049     7.40322     7.42710 
   2   3  15     0.56186     1.28213     1.30724 
   2   4   0     2.56806  1267.12147  1243.60764 
   2   4   1     2.46010    16.10398    15.88505 
   2   4   2     2.20309  1929.31021  1965.52485 
   2   4   3     1.91029   307.39521   315.85463 
   2   4   4     1.64569   342.79023   341.38431 
   2   4   5     1.42619    77.95587    77.28789 
   2   4   6     1.24879   227.76389   235.51424 
   2   4   7     1.10564     0.43925     0.45930 
   2   4   8     0.98916   244.58282   251.07952 
   2   4   9     0.89327   152.10089   158.22906 
   2   4  10     0.81334    24.18354    23.92472 
   2   4  11     0.74593     7.12369     7.23153 
   2   4  12     0.68842    76.82496    76.38293 
   2   4  13     0.63887    13.94995    14.04234 
   2   4  14     0.59578   124.95521   124.69330 
   2   4  15     0.55800    30.76237    30.40857 
   2   5   0     2.19141    36.93424    38.88958 
   2   5   1     2.12318    88.09088    88.14108 
   2   5   2     1.95130     4.28918     4.38471 
   2   5   3     1.73910    71.97876    72.94450 
   2   5   4     1.53242    14.66204    14.81482 
   2   5   5     1.35056    52.34386    52.86821 
   2   5   6     1.19708    70.23731    68.72005 
   2   5   7     1.06926   114.33815   112.67438 
   2   5   8     0.96285    17.90872    17.96125 
   2   5   9     0.87375     9.91405     9.87216 
   2   5  10     0.79853    34.94917    33.92728 
   2   5  11     0.73445    19.90020    19.83237 
   2   5  12     0.67937     0.15583     0.15728 
   2   5  13     0.63161     2.89074     2.89690 
   2   5  14     0.58988     4.17757     4.18797 
   2   6   0     1.89861   569.81003   596.43999 
   2   6   1     1.85371   386.27129   382.16617 
   2   6   2     1.73601    93.58750    94.70550 
   2   6   3     1.58150     4.76941     4.81637 
   2   6   4     1.42131   208.71138   204.84505 
   2   6   5     1.27265    43.29157    45.44338 
   2   6   6     1.14182    26.02466    26.13972 
   2   6   7     1.02933   200.54794   198.44745 
   2   6   8     0.93339  1098.96142  1086.53872 
   2   6   9     0.85156    23.37128    23.61225 
   2   6  10     0.78148   250.74927   253.84065 
   2   6  11     0.72112     0.03605     0.03613 
   2   6  12     0.66877   181.84880   182.23632 
   2   6  13     0.62307    12.37424    12.51611 
   2   6  14     0.58291   159.29904   159.00301 
   2   7   0     1.66858    42.58898    43.39096 
   2   7   1     1.63786    54.19693    54.35774 
   2   7   2     1.55497    91.11127    92.72304 
   2   7   3     1.44101   160.65959   164.31153 
   2   7   4     1.31673     4.48204     4.47404 
   2   7   5     1.19593    99.72824    97.60247 
   2   7   6     1.08543    12.89122    13.27325 
   2   7   7     0.98745     7.77000     7.98182 
   2   7   8     0.90182   194.85827   199.02022 
   2   7   9     0.82738   170.69307   175.27606 
   2   7  10     0.76267     2.95219     2.98576 
   2   7  11     0.70626     8.80692     8.67370 
   2   7  12     0.65687     0.97849     0.98136 
   2   7  13     0.61342    12.15601    12.16661 
   2   7  14     0.57498    13.75971    13.77577 
   2   8   0     1.48493  1312.24015  1340.83562 
   2   8   1     1.46315     0.56980     0.58313 
   2   8   2     1.40316  1975.56967  1971.19050 
   2   8   3     1.31772    36.25063    36.39606 
   2   8   4     1.22068   572.13934   562.32594 
   2   8   5     1.12259     3.23873     3.39269 
   2   8   6     1.02972   217.70000   215.09511 
   2   8   7     0.94495     3.04426     2.94917 
   2   8   8     0.86910   126.56326   124.99296 
   2   8   9     0.80189    29.01540    28.16978 
   2   8  10     0.74257     0.20041     0.19915 
   2   8  11     0.69021     3.34929     3.33446 
   2   8  12     0.64390    50.34381    51.05438 
   2   8  13     0.60281     6.82572     6.90844 
   2   8  14     0.56622    89.93753    89.99660 
   2   9   0     1.33580     7.16078     7.04753 
   2   9   1     1.31988    92.78884    93.31930 
   2   9   2     1.27533    37.76761    38.82553 
   2   9   3     1.21016    12.53252    12.51395 
   2   9   4     1.13371     0.08151     0.08205 
   2   9   5     1.05384    26.74209    26.44686 
   2   9   6     0.97588    55.82851    57.93439 
   2   9   7     0.90283   133.41688   136.22829 
   2   9   8     0.83600     0.36116     0.37357 
   2   9   9     0.77567     1.07241     1.08277 
   2   9  10     0.72160    40.58015    40.73415 
   2   9  11     0.67328    20.86725    20.98013 
   2   9  12     0.63008     0.21866     0.21868 
   2   9  13     0.59143     0.73951     0.74027 
   2   9  14     0.55675     9.48854     9.42577 
   2  10   0     1.21275   255.40901   252.08323 
   2  10   1     1.20080   109.57855   106.72002 
   2  10   2     1.16696     0.03179     0.03121 
   2  10   3     1.11641    22.89022    24.09563 
   2  10   4     1.05555    83.77157    83.19559 
   2  10   5     0.99018     0.10177     0.10477 
   2  10   6     0.92469   109.50463   106.64426 
   2  10   7     0.86184    76.22277    76.66673 
   2  10   8     0.80313   671.36652   655.21048 
   2  10   9     0.74921     1.92987     2.00710 
   2  10  10     0.70015   294.15498   294.10327 
   2  10  11     0.65575     0.61557     0.61842 
   2  10  12     0.61565   149.21539   151.03660 
   2  10  13     0.57944     3.56081     3.57404 
   2  11   0     1.10975   127.06316   131.76483 
   2  11   1     1.10057    52.06828    53.75821 
   2  11   2     1.07434     5.02696     5.02690 
   2  11   3     1.03451   101.84935    98.31326 
   2  11   4     0.98552     0.12679     0.13162 
   2  11   5     0.93170    92.00914    92.24019 
   2  11   6     0.87652     7.82485     7.78193 
   2  11   7     0.82244     5.63162     5.67077 
   2  11   8     0.77097   153.61454   158.18721 
   2  11   9     0.72289   101.38298   102.08688 
   2  11  10     0.67853     0.43635     0.43838 
   2  11  11     0.63789    11.99735    12.01601 
   2  11  12     0.60080     0.02587     0.02595 
   2  11  13     0.56701    12.52380    12.47309 
   2  12   0     1.02241   996.01253   969.03882 
   2  12   1     1.01522    14.98582    15.12738 
   2  12   2     0.99452  1382.03855  1463.17350 
   2  12   3     0.96268    66.04741    66.30258 
   2  12   4     0.92283   551.63091   539.68822 
   2  12   5     0.87819    45.57157    45.73918 
   2  12   6     0.83153   168.82476   171.10204 
   2  12   7     0.78494    13.37886    13.34304 
   2  12   8     0.73982    43.21826    43.11118 
   2  12   9     0.69703     6.06188     6.00211 
   2  12  10     0.65701    10.00838    10.05093 
   2  12  11     0.61990     0.01611     0.01613 
   2  12  12     0.58570    30.06937    30.32188 
   2  12  13     0.55427     1.39793     1.38841 
   2  13   0     0.94751     1.22459     1.18705 
   2  13   1     0.94177    72.71908    70.25032 
   2  13   2     0.92518    79.23179    76.85951 
   2  13   3     0.89938    17.95238    18.57608 
   2  13   4     0.86663     0.08790     0.08708 
   2  13   5     0.82935    41.75066    42.60415 
   2  13   6     0.78971    57.70217    57.20419 
   2  13   7     0.74947   128.64167   133.63804 
   2  13   8     0.70990     0.00411     0.00416 
   2  13   9     0.67184     1.17105     1.17767 
   2  13  10     0.63578    35.89830    36.09930 
   2  13  11     0.60198    10.47029    10.52736 
   2  13  12     0.57052     1.93811     1.96475 
   2  14   0     0.88262    22.17033    22.01737 
   2  14   1     0.87798    21.80143    21.86254 
   2  14   2     0.86449     0.45123     0.44429 
   2  14   3     0.84332    52.83121    52.96841 
   2  14   4     0.81615   102.77591   102.93059 
   2  14   5     0.78478    28.42191    28.31655 
   2  14   6     0.75095   234.63231   240.92620 
   2  14   7     0.71610    25.14332    24.99346 
   2  14   8     0.68135   415.20179   417.03961 
   2  14   9     0.64748     1.68968     1.70622 
   2  14  10     0.61503   306.27869   308.88436 
   2  14  11     0.58428     0.82326     0.82439 
   2  14  12     0.55538   121.14457   120.41584 
   2  15   0     0.82589    75.75422    76.71080 
   2  15   1     0.82209    11.06743    11.11435 
   2  15   2     0.81098     0.09997     0.09801 
   2  15   3     0.79343    81.42883    81.20401 
   2  15   4     0.77068     0.27103     0.27937 
   2  15   5     0.74410    89.68694    89.96600 
   2  15   6     0.71508     0.31937     0.31761 
   2  15   7     0.68479     0.28973     0.28826 
   2  15   8     0.65421    78.86579    78.80355 
   2  15   9     0.62406    40.00818    40.58059 
   2  15  10     0.59485     0.42526     0.42437 
   2  15  11     0.56689     8.65403     8.61825 
   2  16   0     0.77591   602.11324   608.93563 
   2  16   1     0.77275    13.64731    13.90267 
   2  16   2     0.76351   748.24762   757.13688 
   2  16   3     0.74881    22.36426    23.27214 
   2  16   4     0.72959   359.23608   359.20468 
   2  16   5     0.70692    19.31372    19.06690 
   2  16   6     0.68189   107.75233   107.80649 
   2  16   7     0.65548    12.94973    13.01620 
   2  16   8     0.62852    11.07741    11.04328 
   2  16   9     0.60164     0.01099     0.01103 
   2  16  10     0.57534    18.62697    18.63461 
   2  17   0     0.73155     1.54278     1.53114 
   2  17   1     0.72890    38.89850    39.08570 
   2  17   2     0.72113    33.17397    33.25524 
   2  17   3     0.70871    33.79151    33.96440 
   2  17   4     0.69235     0.00977     0.00973 
   2  17   5     0.67289    54.63464    54.90093 
   2  17   6     0.65120    28.03660    28.11102 
   2  17   7     0.62808    87.42631    87.13554 
   2  17   8     0.60423     0.70672     0.71188 
   2  17   9     0.58024     0.14110     0.14203 
   2  17  10     0.55654    15.84554    15.73443 
   2  18   0     0.69193     0.07799     0.07762 
   2  18   1     0.68969     0.40375     0.40272 
   2  18   2     0.68309     1.15430     1.14611 
   2  18   3     0.67251    15.09304    15.16660 
   2  18   4     0.65848    96.19679    97.63130 
   2  18   5     0.64167     9.65126     9.71782 
   2  18   6     0.62278   258.34041   261.48293 
   2  18   7     0.60246     0.68778     0.69425 
   2  18   8     0.58133   282.94326   280.74404 
   2  18   9     0.55987     1.44572     1.46111 
   2  19   0     0.65634    25.39932    25.46050 
   2  19   1     0.65442     0.00050     0.00050 
   2  19   2     0.64878     1.91949     1.93267 
   2  19   3     0.63969    55.54319    56.30111 
   2  19   4     0.62758     0.02741     0.02739 
   2  19   5     0.61298    66.41825    66.58676 
   2  19   6     0.59644     0.20171     0.20187 
   2  19   7     0.57853     6.66609     6.71176 
   2  19   8     0.55973    25.51932    25.76842 
   2  20   0     0.62419   437.22094   443.64612 
   2  20   1     0.62254     5.25049     5.31618 
   2  20   2     0.61768   534.09003   534.21471 
   2  20   3     0.60982     2.31276     2.32100 
   2  20   4     0.59930   260.06598   260.74019 
   2  20   5     0.58655     1.76731     1.78445 
   2  20   6     0.57201    72.81361    73.75795 
   2  20   7     0.55615     3.49378     3.46648 
   2  21   0     0.59501     4.27340     4.26198 
   2  21   1     0.59359    17.45964    17.50766 
   2  21   2     0.58937    15.73625    15.78526 
   2  21   3     0.58253    44.98304    44.72464 
   2  21   4     0.57334     0.35105     0.35499 
   2  21   5     0.56214    60.08482    61.24150 
   2  22   0     0.56842     0.20203     0.20382 
   2  22   1     0.56718     0.16053     0.16021 
   2  22   2     0.56349     0.05196     0.05268 
   2  22   3     0.55751     2.95016     2.92115 
   3   0   1     2.79115  1778.46051  1811.65333 
   3   0   2     2.43136   967.84416   978.73828 
   3   0   3     2.05341   808.29513   805.08510 
   3   0   4     1.73457    37.07824    37.52600 
   3   0   5     1.48288   939.94610   955.78866 
   3   0   6     1.28632   382.58954   404.39913 
   3   0   7     1.13143    34.23122    34.44298 
   3   0   8     1.00750   130.71138   129.49542 
   3   0   9     0.90671    30.55589    32.38208 
   3   0  10     0.82345     0.49986     0.50626 
   3   0  11     0.75370   219.74984   223.93505 
   3   0  12     0.69451    13.19864    13.09850 
   3   0  13     0.64373     1.59878     1.62086 
   3   0  14     0.59972    18.30041    18.34273 
   3   0  15     0.56123    50.70489    51.56552 
   3   1   1     2.72518   166.28708   164.15936 
   3   1   2     2.38738    22.40677    22.59830 
   3   1   3     2.02672   309.46151   302.25546 
   3   1   4     1.71839     0.00039     0.00039 
   3   1   5     1.47273    38.77132    39.81547 
   3   1   6     1.27968     2.33677     2.43414 
   3   1   7     1.12690   228.46830   239.22938 
   3   1   8     1.00430    12.71628    12.63114 
   3   1   9     0.90437    96.05011    98.91813 
   3   1  10     0.82170    13.88107    13.90177 
   3   1  11     0.75235     8.65581     8.73160 
   3   1  12     0.69346     8.04076     7.99857 
   3   1  13     0.64289     0.10606     0.10647 
   3   1  14     0.59904     3.98306     3.99920 
   3   1  15     0.56068     0.07541     0.07644 
   3   2   1     2.55223    33.81154    34.12062 
   3   2   2     2.26852   810.19439   799.97695 
   3   2   3     1.95247   831.00246   848.91785 
   3   2   4     1.67244   556.52401   568.73171 
   3   2   5     1.44349   827.95382   848.18232 
   3   2   6     1.26036   107.95689   116.78830 
   3   2   7     1.11364   218.49191   232.60559 
   3   2   8     0.99488   377.56852   400.37129 
   3   2   9     0.89747    44.77456    45.64424 
   3   2  10     0.81651    16.55498    16.65562 
   3   2  11     0.74837   715.81386   744.20992 
   3   2  12     0.69034    41.02323    40.82863 
   3   2  13     0.64040     2.73431     2.78985 
   3   2  14     0.59702    19.51789    19.56394 
   3   2  15     0.55902    73.92482    73.90434 
   3   3   1     2.32518   140.27933   131.25341 
   3   3   2     2.10461    26.18510    25.98210 
   3   3   3     1.84501   127.36383   125.36331 
   3   3   4     1.60341     9.22270     9.13753 
   3   3   5     1.39841    55.49004    55.83506 
   3   3   6     1.23001    98.05097    95.98226 
   3   3   7     1.09254    94.88301    98.72576 
   3   3   8     0.97975     2.53726     2.67746 
   3   3   9     0.88632    67.24848    66.85351 
   3   3  10     0.80809    53.92160    53.80918 
   3   3  11     0.74186     1.88531     1.87865 
   3   3  12     0.68522     3.89063     3.87175 
   3   3  13     0.63631     5.60280     5.64028 
   3   3  14     0.59370    26.24958    26.31062 
   3   3  15     0.55629     2.37440     2.35644 
   3   4   1     2.08975   608.77475   633.71331 
   3   4   2     1.92526  1033.55481  1085.97502 
   3   4   3     1.72059   223.59839   224.99636 
   3   4   4     1.51971     1.68893     1.75258 
   3   4   5     1.34184   720.80916   716.32565 
   3   4   6     1.19099   355.22257   349.41633 
   3   4   7     1.06492    18.00328    17.54896 
   3   4   8     0.95968   124.84080   127.04091 
   3   4   9     0.87138    39.48275    39.68954 
   3   4  10     0.79672     4.76372     4.63276 
   3   4  11     0.73304   343.05039   338.32392 
   3   4  12     0.67825    15.12991    15.22225 
   3   4  13     0.63072     0.06826     0.06841 
   3   4  14     0.58915    27.89875    27.99276 
   3   5   1     1.87123    26.88945    27.23835 
   3   5   2     1.75037     0.18948     0.19045 
   3   5   3     1.59234   182.71503   177.36762 
   3   5   4     1.42917   310.12927   312.75037 
   3   5   5     1.27828     6.41905     6.65244 
   3   5   6     1.14588    21.52239    21.54171 
   3   5   7     1.03230   111.30441   108.98321 
   3   5   8     0.93560     1.97492     1.94885 
   3   5   9     0.85324    34.38085    34.54890 
   3   5  10     0.78278     4.03880     4.05721 
   3   5  11     0.72214    22.62266    22.72161 
   3   5  12     0.66959    47.51626    47.96175 
   3   5  13     0.62373     4.40288     4.45811 
   3   5  14     0.58345     0.68779     0.68755 
   3   6   1     1.67890  1822.46470  1847.94030 
   3   6   2     1.58996   262.50375   256.18748 
   3   6   3     1.46873   107.00421   110.23488 
   3   6   4     1.33777   145.60741   143.13231 
   3   6   5     1.21163  1548.52399  1533.53007 
   3   6   6     1.09713    20.01313    20.99017 
   3   6   7     0.99623   462.62808   488.96201 
   3   6   8     0.90850   132.75436   142.14731 
   3   6   9     0.83253   120.57438   123.43571 
   3   6  10     0.76670     3.03478     3.08537 
   3   6  11     0.70945   542.92986   549.69172 
   3   6  12     0.65944    26.70481    27.04972 
   3   6  13     0.61550    17.58972    17.78976 
   3   6  14     0.57670     6.87531     6.93300 
   3   7   1     1.51354    16.78790    17.24206 
   3   7   2     1.44741   257.56728   262.74468 
   3   7   3     1.35416     2.25819     2.28390 
   3   7   4     1.24948     0.58236     0.60567 
   3   7   5     1.14487    29.37902    29.65460 
   3   7   6     1.04683   313.50200   307.12819 
   3   7   7     0.95812     6.23233     6.24549 
   3   7   8     0.87931     5.84780     5.88107 
   3   7   9     0.80990    22.74437    22.31124 
   3   7  10     0.74891    69.64443    72.47052 
   3   7  11     0.69529     0.04316     0.04262 
   3   7  12     0.64802    19.24004    19.38511 
   3   7  13     0.60619    16.37661    16.43868 
   3   7  14     0.56901    46.38862    46.82143 
   3   8   1     1.37248     9.24845     9.08592 
   3   8   2     1.32260   397.39999   396.19850 
   3   8   3     1.25032     1.41812     1.48531 
   3   8   4     1.16653    10.40400    10.24829 
   3   8   5     1.08004   160.06841   157.45989 
   3   8   6     0.99658   169.58057   178.78028 
   3   8   7     0.91914    15.09739    14.77449 
   3   8   8     0.84890    57.51605    57.75520 
   3   8   9     0.78595    29.04430    29.14271 
   3   8  10     0.72985     3.63998     3.63180 
   3   8  11     0.67996   176.03928   178.22206 
   3   8  12     0.63555     3.04602     3.05894 
   3   8  13     0.59595     9.58836     9.57516 
   3   8  14     0.56052    11.41915    11.56667 
   3   9   1     1.25217     8.21666     8.66696 
   3   9   2     1.21394     0.09130     0.08988 
   3   9   3     1.15734    71.44681    70.33250 
   3   9   4     1.08993   455.16633   477.49481 
   3   9   5     1.01840    17.95619    18.01964 
   3   9   6     0.94754    11.16930    10.82977 
   3   9   7     0.88025    66.36104    66.65247 
   3   9   8     0.81797     8.17033     8.23665 
   3   9   9     0.76121    16.71558    16.96934 
   3   9  10     0.70992    19.06941    19.33812 
   3   9  11     0.66375    15.48905    15.42772 
   3   9  12     0.62226    71.78575    72.71569 
   3   9  13     0.58494     7.84346     7.87186 
   3  10   1     1.14914   824.15631   801.76399 
   3  10   2     1.11938   185.00127   193.32189 
   3  10   3     1.07454   213.23155   213.40301 
   3  10   4     1.01994   176.55756   176.87970 
   3  10   5     0.96061   779.05504   793.85210 
   3  10   6     0.90047    83.98815    86.55171 
   3  10   7     0.84213   420.79130   424.78929 
   3  10   8     0.78711    68.12906    68.47131 
   3  10   9     0.73615   188.44884   190.96335 
   3  10  10     0.68946     1.63172     1.62821 
   3  10  11     0.64694   322.42782   326.01210 
   3  10  12     0.60834     8.12017     8.14373 
   3  10  13     0.57334    54.00952    54.61599 
   3  11   1     1.06039     0.13418     0.13251 
   3  11   2     1.03687   185.53389   176.90905 
   3  11   3     1.00093     2.36002     2.39609 
   3  11   4     0.95636     5.49832     5.50406 
   3  11   5     0.90694    46.00508    48.92025 
   3  11   6     0.85581   176.56537   175.49562 
   3  11   7     0.80526     3.27053     3.19091 
   3  11   8     0.75676     3.51183     3.61382 
   3  11   9     0.71114    14.11570    14.28137 
   3  11  10     0.66879    66.66296    66.81411 
   3  11  11     0.62977     3.14730     3.14179 
   3  11  12     0.59400    11.40588    11.41967 
   3  11  13     0.56129    13.98009    14.22122 
   3  12   1     0.98342   451.91828   477.03550 
   3  12   2     0.96458   202.77686   202.50559 
   3  12   3     0.93544   311.73485   307.59646 
   3  12   4     0.89875   121.63280   125.51325 
   3  12   5     0.85737   209.64742   206.60998 
   3  12   6     0.81379   145.97072   144.34375 
   3  12   7     0.76996    73.75455    76.09413 
   3  12   8     0.72724    49.04544    49.35356 
   3  12   9     0.68648    36.43609    36.12032 
   3  12  10     0.64815     0.15938     0.16055 
   3  12  11     0.61245    67.16264    67.44098 
   3  12  12     0.57940     0.00430     0.00431 
   3  13   1     0.91623     8.83929     8.74685 
   3  13   2     0.90093     0.55881     0.57392 
   3  13   3     0.87705    39.63550    39.52857 
   3  13   4     0.84660   241.58901   238.24537 
   3  13   5     0.81174     1.61857     1.59401 
   3  13   6     0.77446     2.09908     2.10817 
   3  13   7     0.73640    43.78304    44.37566 
   3  13   8     0.69876     4.48498     4.46298 
   3  13   9     0.66238    10.04426    10.19159 
   3  13  10     0.62775    14.21243    14.18437 
   3  13  11     0.59515     5.58540     5.56851 
   3  13  12     0.56469    51.90713    52.45211 
   3  14   1     0.85717    52.23245    51.51725 
   3  14   2     0.84460   111.15340   110.47287 
   3  14   3     0.82483    68.47966    69.13084 
   3  14   4     0.79935   126.68963   123.00267 
   3  14   5     0.76981   221.65780   228.65887 
   3  14   6     0.73780   100.09719   100.08481 
   3  14   7     0.70467   312.38631   309.23418 
   3  14   8     0.67148    27.10975    27.26241 
   3  14   9     0.63900   221.31767   222.92043 
   3  14  10     0.60774     0.42557     0.42924 
   3  14  11     0.57802   182.28238   182.70155 
   3  15   1     0.80493     0.57042     0.55541 
   3  15   2     0.79450   100.01204    99.17502 
   3  15   3     0.77798     0.13617     0.13957 
   3  15   4     0.75649     0.00598     0.00617 
   3  15   5     0.73131    33.88170    33.60965 
   3  15   6     0.70370    91.37862    90.98469 
   3  15   7     0.67478     2.26523     2.30005 
   3  15   8     0.64547     4.01214     4.03896 
   3  15   9     0.61646     4.32451     4.38026 
   3  15  10     0.58825    35.89592    36.09474 
   3  15  11     0.56117     2.26293     2.30070 
   3  16   1     0.75845   614.29033   632.24404 
   3  16   2     0.74970    58.22801    60.39945 
   3  16   3     0.73577   485.83682   491.27181 
   3  16   4     0.71752    95.29201    94.62953 
   3  16   5     0.69592   157.45018   155.66638 
   3  16   6     0.67201    53.53979    53.83579 
   3  16   7     0.64668    80.95336    81.78764 
   3  16   8     0.62075    20.56304    20.71027 
   3  16   9     0.59482    31.56223    31.50118 
   3  16  10     0.56936     0.00217     0.00219 
   3  17   1     0.71686     0.41754     0.41440 
   3  17   2     0.70946     6.65538     6.73878 
   3  17   3     0.69763    16.22077    16.07130 
   3  17   4     0.68201   172.70320   172.65973 
   3  17   5     0.66338     0.02099     0.02105 
   3  17   6     0.64257    21.78833    21.79188 
   3  17   7     0.62032    13.09302    13.12241 
   3  17   8     0.59732     9.25225     9.28007 
   3  17   9     0.57411     2.43663     2.46547 
   3  18   1     0.67946    19.22508    19.42189 
   3  18   2     0.67315    42.78214    43.00382 
   3  18   3     0.66302    88.76853    89.59605 
   3  18   4     0.64956    45.37788    45.68506 
   3  18   5     0.63341   130.31233   131.13545 
   3  18   6     0.61522    50.26197    50.74671 
   3  18   7     0.59561   267.81469   267.09005 
   3  18   8     0.57516     6.91424     6.91515 
   3  18   9     0.55435   222.75261   221.08118 
   3  19   1     0.64567     0.48672     0.48982 
   3  19   2     0.64024    68.99774    70.33861 
   3  19   3     0.63150     0.00333     0.00334 
   3  19   4     0.61985    27.82058    27.85850 
   3  19   5     0.60577     9.53553     9.57602 
   3  19   6     0.58979    69.60948    69.79745 
   3  19   7     0.57245     0.71662     0.72451 
   3  19   8     0.55423     7.48408     7.43597 
   3  20   1     0.61499   437.98049   441.60820 
   3  20   2     0.61030    18.62129    18.71698 
   3  20   3     0.60271   360.54328   364.69658 
   3  20   4     0.59255    52.72571    52.71960 
   3  20   5     0.58022    92.73104    93.33057 
   3  20   6     0.56614    20.32006    20.34275 
   3  21   1     0.58703     0.06514     0.06563 
   3  21   2     0.58295    27.68735    27.64087 
   3  21   3     0.57633     2.66289     2.68408 
   3  21   4     0.56742   129.04190   129.32599 
   3  21   5     0.55656     0.16524     0.16409 
   3  22   1     0.56145     6.63117     6.75072 
   3  22   2     0.55788    20.75885    20.51895 
   4   0   0     2.21393    29.00668    31.17363 
   4   0   1     2.14363   872.90584   870.71490 
   4   0   2     1.96714   172.88361   166.99902 
   4   0   3     1.75029    25.22273    25.35436 
   4   0   4     1.54006    10.73046    10.78625 
   4   0   5     1.35578    30.91307    31.05293 
   4   0   6     1.20071    13.70247    13.35257 
   4   0   7     1.07185   485.70407   482.13782 
   4   0   8     0.96474     6.16021     6.15192 
   4   0   9     0.87516    44.19825    43.84461 
   4   0  10     0.79961    51.48850    49.99560 
   4   0  11     0.73529     7.96200     8.01058 
   4   0  12     0.68003     9.06619     9.17837 
   4   0  13     0.63215    17.61323    17.63248 
   4   0  14     0.59032    47.07021    47.09108 
   4   0  15     0.55350    42.62319    42.91465 
   4   1   0     2.18057     9.53456     9.86214 
   4   1   1     2.11331    84.98672    82.01337 
   4   1   2     1.94364   205.02314   216.35023 
   4   1   3     1.73367   356.73535   360.89174 
   4   1   4     1.52870    38.88626    40.15903 
   4   1   5     1.34802   232.89187   228.58912 
   4   1   6     1.19530    31.60932    30.99752 
   4   1   7     1.06800   137.95869   135.70534 
   4   1   8     0.96193   280.29366   282.81722 
   4   1   9     0.87306    22.56980    22.57111 
   4   1  10     0.79800     1.83788     1.78606 
   4   1  11     0.73404    13.09645    12.98860 
   4   1  12     0.67904     0.97786     0.98386 
   4   1  13     0.63135     6.87639     6.88961 
   4   1  14     0.58967     4.24559     4.25827 
   4   2   0     2.08889   727.17097   754.69098 
   4   2   1     2.02953     3.39646     3.32430 
   4   2   2     1.87786  1567.05392  1600.30697 
   4   2   3     1.68651   479.00387   485.09026 
   4   2   4     1.49607  1345.64659  1364.40796 
   4   2   5     1.32548    58.04759    57.91186 
   4   2   6     1.17951   480.66396   468.94662 
   4   2   7     1.05669     7.94111     7.93004 
   4   2   8     0.95364   463.49471   462.41789 
   4   2   9     0.86685   387.67136   384.17628 
   4   2  10     0.79325   471.62105   469.93667 
   4   2  11     0.73034    35.87619    35.65639 
   4   2  12     0.67611    62.63318    64.10492 
   4   2  13     0.62899    15.79754    15.75165 
   4   2  14     0.58775   115.73959   116.44815 
   4   3   0     1.95882    38.31362    38.76606 
   4   3   1     1.90963    57.93619    59.71068 
   4   3   2     1.78168    14.34793    14.46431 
   4   3   3     1.61580   163.44000   162.19075 
   4   3   4     1.44605    18.56618    18.97444 
   4   3   5     1.29032   131.56639   134.45634 
   4   3   6     1.15452    95.40969    93.68095 
   4   3   7     1.03861    74.38626    71.34476 
   4   3   8     0.94029    68.88321    66.05258 
   4   3   9     0.85679     4.73778     4.68249 
   4   3  10     0.78552    39.05598    39.10866 
   4   3  11     0.72429     4.88483     4.93226 
   4   3  12     0.67130     1.58833     1.59719 
   4   3  13     0.62512    19.61138    19.92338 
   4   3  14     0.58458     1.05786     1.05988 
   4   4   0     1.81176   596.74451   574.78317 
   4   4   1     1.77263  1241.48237  1239.37671 
   4   4   2     1.66888   506.99888   516.90125 
   4   4   3     1.53025    45.35138    46.56124 
   4   4   4     1.38376   448.16456   438.00890 
   4   4   5     1.24548    33.28357    33.64561 
   4   4   6     1.12207   282.72758   296.26866 
   4   4   7     1.01479   714.06750   721.73869 
   4   4   8     0.92251    63.36137    61.94039 
   4   4   9     0.84327    63.19974    63.38773 
   4   4  10     0.77506   113.19172   113.79805 
   4   4  11     0.71607     9.10586     9.05204 
   4   4  12     0.66474    23.45892    23.34335 
   4   4  13     0.61981    27.66187    27.70520 
   4   4  14     0.58023    84.20003    84.74766 
   4   5   0     1.66378    98.38513    98.70171 
   4   5   1     1.63332    11.82698    11.91898 
   4   5   2     1.55109   101.51967   102.43576 
   4   5   3     1.43792    90.93967    92.33564 
   4   5   4     1.31437     2.37715     2.35983 
   4   5   5     1.19416    35.75621    35.27177 
   4   5   6     1.08411     2.37291     2.41157 
   4   5   7     0.98645    36.95563    38.09735 
   4   5   8     0.90106   408.17457   418.79053 
   4   5   9     0.82680    11.76555    12.01502 
   4   5  10     0.76221     5.90022     5.96420 
   4   5  11     0.70590    25.20308    24.80456 
   4   5  12     0.65658     0.01396     0.01399 
   4   5  13     0.61318     1.17436     1.17616 
   4   5  14     0.57478    18.97931    19.05024 
   4   6   0     1.52422   102.40652   107.10129 
   4   6   1     1.50070     5.83976     5.80365 
   4   6   2     1.43617    49.14651    49.82908 
   4   6   3     1.34494   320.10489   314.84761 
   4   6   4     1.24223    28.70098    28.45103 
   4   6   5     1.13928    75.71345    76.50937 
   4   6   6     1.04255    80.67201    76.55545 
   4   6   7     0.95484     0.07857     0.07874 
   4   6   8     0.87677   264.05683   262.93667 
   4   6   9     0.80791   191.49003   191.27861 
   4   6  10     0.74734   347.89362   359.16524 
   4   6  11     0.69403    14.45632    14.36441 
   4   6  12     0.64700    77.88023    78.74351 
   4   6  13     0.60535     9.55482     9.62035 
   4   6  14     0.56832    94.24400    95.07972 
   4   7   0     1.39728     7.37765     7.39681 
   4   7   1     1.37910    19.05517    18.66701 
   4   7   2     1.32851    83.67450    81.79569 
   4   7   3     1.25532    29.98120    31.72801 
   4   7   4     1.17058     1.21474     1.16488 
   4   7   5     1.08326    46.69238    47.05310 
   4   7   6     0.99910   132.11114   136.77171 
   4   7   7     0.92112    22.00124    21.44007 
   4   7   8     0.85046     1.61931     1.63768 
   4   7   9     0.78718     0.12776     0.12839 
   4   7  10     0.73084    94.40592    93.60418 
   4   7  11     0.68076     1.16050     1.17057 
   4   7  12     0.63621     0.22679     0.22839 
   4   7  13     0.59648    29.45255    29.48070 
   4   7  14     0.56096    10.32174    10.48037 
   4   8   0     1.28403  1302.57008  1367.98611 
   4   8   1     1.26987   493.26928   522.35773 
   4   8   2     1.23005  1667.92527  1633.12821 
   4   8   3     1.17127    82.39322    78.97986 
   4   8   4     1.10155   988.64385  1022.18677 
   4   8   5     1.02786     2.33183     2.31587 
   4   8   6     0.95514   414.32892   415.41969 
   4   8   7     0.88633   345.31959   343.30040 
   4   8   8     0.82285   100.69762   101.70292 
   4   8   9     0.76514    11.95451    12.06836 
   4   8  10     0.71310    92.09583    93.11510 
   4   8  11     0.66635     1.51913     1.51042 
   4   8  12     0.62440    33.33633    33.83997 
   4   8  13     0.58672    13.72447    13.84927 
   4   9   0     1.18392   218.71300   208.46639 
   4   9   1     1.17279     8.68208     8.38532 
   4   9   2     1.14121    45.43698    45.60272 
   4   9   3     1.09380   114.26857   119.36813 
   4   9   4     1.03637     1.65601     1.57868 
   4   9   5     0.97430    66.26608    67.68152 
   4   9   6     0.91171     7.72176     7.83262 
   4   9   7     0.85130    46.41131    46.91269 
   4   9   8     0.79459   386.42657   382.72605 
   4   9   9     0.74226    15.85621    15.76507 
   4   9  10     0.69447     6.82136     6.77096 
   4   9  11     0.65107    19.58718    19.64239 
   4   9  12     0.61178     0.66183     0.66345 
   4   9  13     0.57621     0.10282     0.10359 
   4  10   0     1.09571     0.14874     0.15657 
   4  10   1     1.08687    16.87933    17.53534 
   4  10   2     1.06159    20.14444    19.81867 
   4  10   3     1.02311   172.48023   167.06597 
   4  10   4     0.97565   116.85466   120.87303 
   4  10   5     0.92334    89.51064    87.63443 
   4  10   6     0.86955   181.97605   180.40444 
   4  10   7     0.81668    11.80268    11.89356 
   4  10   8     0.76621   277.82005   281.32511 
   4  10   9     0.71897    44.69588    44.45006 
   4  10  10     0.67528   266.76008   272.62680 
   4  10  11     0.63519     0.90206     0.90456 
   4  10  12     0.59854   101.69839   102.40970 
   4  10  13     0.56511     2.98203     3.00284 
   4  11   0     1.01797     9.74281     9.77386 
   4  11   1     1.01087    33.82231    33.76344 
   4  11   2     0.99043    88.95565    91.63844 
   4  11   3     0.95897   103.44385   104.60479 
   4  11   4     0.91956     5.69978     5.57058 
   4  11   5     0.87537   149.01869   147.84123 
   4  11   6     0.82914   147.43994   150.96933 
   4  11   7     0.78292    51.28483    51.44489 
   4  11   8     0.73813     0.59314     0.59135 
   4  11   9     0.69562     0.09546     0.09425 
   4  11  10     0.65582    96.47712    96.90078 
   4  11  11     0.61891     0.19620     0.19708 
   4  11  12     0.58486     0.47040     0.47188 
   4  11  13     0.55356    27.86512    28.04105 
   4  12   0     0.94930   251.32233   247.50810 
   4  12   1     0.94354    85.24375    82.82925 
   4  12   2     0.92686   374.53022   362.27033 
   4  12   3     0.90092    61.12589    62.78399 
   4  12   4     0.86800   258.87916   255.31764 
   4  12   5     0.83055    17.40751    17.49498 
   4  12   6     0.79075   143.97906   142.17546 
   4  12   7     0.75036    75.39354    77.82915 
   4  12   8     0.71066    57.82601    58.55425 
   4  12   9     0.67248     0.01506     0.01514 
   4  12  10     0.63633    51.13476    51.47430 
   4  12  11     0.60244     0.21771     0.21971 
   4  12  12     0.57091    38.63727    39.17076 
   4  13   0     0.88845   110.71260   111.16303 
   4  13   1     0.88372    18.92661    18.65883 
   4  13   2     0.86996    31.51560    31.37779 
   4  13   3     0.84841   183.06968   182.58559 
   4  13   4     0.82075     6.02892     6.01669 
   4  13   5     0.78887   145.48066   144.95406 
   4  13   6     0.75453     1.64925     1.70534 
   4  13   7     0.71920    72.14079    71.71002 
   4  13   8     0.68402   218.32050   216.86706 
   4  13   9     0.64978    17.46817    17.58219 
   4  13  10     0.61699     1.30328     1.31246 
   4  13  11     0.58596     9.70778     9.79392 
   4  13  12     0.55682     1.05543     1.04852 
   4  14   0     0.83429    85.45390    87.81406 
   4  14   1     0.83037    14.61304    14.69797 
   4  14   2     0.81893   213.29135   214.28523 
   4  14   3     0.80087    27.86947    26.94679 
   4  14   4     0.77749   251.67973   257.05057 
   4  14   5     0.75023    20.38195    21.06117 
   4  14   6     0.72051   278.96249   278.46799 
   4  14   7     0.68956     9.99196     9.96896 
   4  14   8     0.65836   281.44385   285.59144 
   4  14   9     0.62766     0.47108     0.47044 
   4  14  10     0.59797   206.95681   208.21883 
   4  14  11     0.56959     0.23217     0.23464 
   4  15   0     0.78590     3.69040     3.70216 
   4  15   1     0.78262    25.78112    25.94149 
   4  15   2     0.77302    46.75165    47.51359 
   4  15   3     0.75778   100.22955   102.80790 
   4  15   4     0.73788     2.59354     2.59126 
   4  15   5     0.71445   133.21437   132.82824 
   4  15   6     0.68864    78.01044    77.66060 
   4  15   7     0.66147    42.44887    43.18040 
   4  15   8     0.63379     0.15441     0.15544 
   4  15   9     0.60626     0.03524     0.03538 
   4  15  10     0.57937    49.95710    50.15396 
   4  15  11     0.55345     1.26761     1.27700 
   4  16   0     0.74247   196.32069   195.11144 
   4  16   1     0.73970     1.54273     1.53808 
   4  16   2     0.73158   334.93555   332.42338 
   4  16   3     0.71862    15.58845    15.50865 
   4  16   4     0.70158   196.97028   198.27622 
   4  16   5     0.68135     5.06315     5.08531 
   4  16   6     0.65886    98.34682    99.78339 
   4  16   7     0.63494     1.41205     1.41579 
   4  16   8     0.61034    41.72488    41.93665 
   4  16   9     0.58564     1.46827     1.48038 
   4  16  10     0.56130    27.44595    27.92076 
   4  17   0     0.70332    56.00512    55.82810 
   4  17   1     0.70097    13.68154    13.75459 
   4  17   2     0.69405     0.57976     0.57607 
   4  17   3     0.68295   112.77754   112.05219 
   4  17   4     0.66827     0.56925     0.56751 
   4  17   5     0.65073   105.69110   106.08360 
   4  17   6     0.63104     0.05293     0.05303 
   4  17   7     0.60994    49.61755    49.82264 
   4  17   8     0.58803    79.82736    80.29711 
   4  17   9     0.56585     9.02848     9.04406 
   4  18   0     0.66790    16.54156    16.46561 
   4  18   1     0.66588     9.10728     9.07975 
   4  18   2     0.65994    62.71342    63.51394 
   4  18   3     0.65038     1.14901     1.15454 
   4  18   4     0.63767   119.80473   119.89048 
   4  18   5     0.62237     0.92738     0.93913 
   4  18   6     0.60508   204.53517   206.23771 
   4  18   7     0.58640     4.07402     4.11404 
   4  18   8     0.56686   228.97359   228.02448 
   4  19   0     0.63572     3.28397     3.30101 
   4  19   1     0.63398    14.04402    14.13096 
   4  19   2     0.62884    39.72280    39.60947 
   4  19   3     0.62055    66.84484    67.15196 
   4  19   4     0.60948     0.28023     0.28073 
   4  19   5     0.59608    82.47617    82.41353 
   4  19   6     0.58084    24.38717    24.37744 
   4  19   7     0.56426    26.79316    27.07527 
   4  20   0     0.60637   232.74015   233.77992 
   4  20   1     0.60486     1.02521     1.03424 
   4  20   2     0.60040   390.13239   391.43782 
   4  20   3     0.59317     3.83541     3.84642 
   4  20   4     0.58348   196.33567   196.27699 
   4  20   5     0.57169     1.10573     1.12030 
   4  20   6     0.55821    76.20156    75.41392 
   4  21   0     0.57952    34.22955    34.34921 
   4  21   1     0.57820    12.26901    12.31372 
   4  21   2     0.57430     9.83158     9.93415 
   4  21   3     0.56797    82.89027    83.57381 
   4  21   4     0.55944     0.57620     0.58003 
   4  22   0     0.55487     2.93296     2.91343 
   4  22   1     0.55372     3.38938     3.40112 
   5   0   1     1.73453  1526.99440  1545.42094 
   5   0   2     1.63697   359.31836   360.61488 
   5   0   3     1.50553  2085.59753  2096.47777 
   5   0   4     1.36541    17.92012    17.85685 
   5   0   5     1.23205    42.34945    41.92255 
   5   0   6     1.11222    30.93910    32.73467 
   5   0   7     1.00749   240.16300   237.92680 
   5   0   8     0.91701   122.98473   121.17109 
   5   0   9     0.83906    82.34482    83.43215 
   5   0  10     0.77179    24.10452    24.72570 
   5   0  11     0.71348    15.69838    15.81189 
   5   0  12     0.66267     3.37950     3.42442 
   5   0  13     0.61813   174.15344   174.17991 
   5   0  14     0.57886     0.07043     0.07097 
   5   1   1     1.71835   159.39582   160.82465 
   5   1   2     1.62334     0.05547     0.05580 
   5   1   3     1.49492   113.11091   114.76244 
   5   1   4     1.35747    11.22025    11.28872 
   5   1   5     1.22621     1.88053     1.82250 
   5   1   6     1.10792    18.17750    18.95541 
   5   1   7     1.00429    23.54143    23.38427 
   5   1   8     0.91459     0.37742     0.37738 
   5   1   9     0.83721     4.40198     4.55629 
   5   1  10     0.77035     6.40605     6.60835 
   5   1  11     0.71235    38.52785    39.05080 
   5   1  12     0.66176     2.83829     2.88484 
   5   1  13     0.61739     0.59563     0.59684 
   5   1  14     0.57825     7.03704     7.06564 
   5   2   1     1.67239   486.45249   497.15170 
   5   2   2     1.58443   297.97672   297.89200 
   5   2   3     1.46436   210.93771   217.15930 
   5   2   4     1.33447    58.00443    57.21185 
   5   2   5     1.20918    29.13251    29.23278 
   5   2   6     1.09531    48.11624    50.61660 
   5   2   7     0.99487   648.21798   687.34339 
   5   2   8     0.90746    55.33375    59.18805 
   5   2   9     0.83173   552.73381   561.57827 
   5   2  10     0.76607    37.34662    37.78909 
   5   2  11     0.70896    16.50893    16.64675 
   5   2  12     0.65904    22.82064    23.14299 
   5   2  13     0.61518   460.34493   464.67895 
   5   2  14     0.57643     3.40005     3.42821 
   5   3   1     1.60337   112.44294   111.41384 
   5   3   2     1.52537    14.02131    14.61197 
   5   3   3     1.41736    47.61935    46.76962 
   5   3   4     1.29861   168.14379   170.61631 
   5   3   5     1.18230     1.10251     1.05670 
   5   3   6     1.07521     0.17268     0.17307 
   5   3   7     0.97974    35.85127    37.83123 
   5   3   8     0.89594     4.49121     4.55852 
   5   3   9     0.82283     0.08111     0.08191 
   5   3  10     0.75910    32.22281    33.15212 
   5   3  11     0.70342     9.41853     9.38641 
   5   3  12     0.65459    15.42904    15.44215 
   5   3  13     0.61155     2.21465     2.21936 
   5   3  14     0.57344     1.19388     1.20791 
   5   4   1     1.51968   720.57374   747.59491 
   5   4   2     1.45278   774.85680   787.79030 
   5   4   3     1.35855  1566.74419  1580.66587 
   5   4   4     1.25293     6.29860     6.64076 
   5   4   5     1.14752     0.07672     0.07551 
   5   4   6     1.04885   158.76514   158.57954 
   5   4   7     0.95967   225.39961   229.36037 
   5   4   8     0.88051   259.77506   260.72071 
   5   4   9     0.81083   106.06337   103.90962 
   5   4  10     0.74965    25.44459    26.40208 
   5   4  11     0.69588    18.21168    18.00107 
   5   4  12     0.64850     4.83988     4.87391 
   5   4  13     0.60658   276.50049   278.09272 
   5   4  14     0.56934     0.07364     0.07439 
   5   5   1     1.42914    23.88012    24.07862 
   5   5   2     1.37307    69.23844    68.20612 
   5   5   3     1.29271   107.65266   108.77227 
   5   5   4     1.20072     0.58637     0.57136 
   5   5   5     1.10701     0.30930     0.32381 
   5   5   6     1.01765   138.38962   138.80941 
   5   5   7     0.93559    29.93678    29.54169 
   5   5   8     0.86181     1.45866     1.46757 
   5   5   9     0.79616    30.34681    29.56412 
   5   5  10     0.73801     0.61457     0.61335 
   5   5  11     0.68654    42.17387    41.80262 
   5   5  12     0.64092    37.20571    37.93088 
   5   5  13     0.60036     0.00846     0.00849 
   5   5  14     0.56418    32.46252    32.80219 
   5   6   1     1.33775    74.47547    73.20723 
   5   6   2     1.29143   385.69442   391.27135 
   5   6   3     1.22390   926.16311   899.37649 
   5   6   4     1.14498   263.62747   265.89827 
   5   6   5     1.06287   121.65698   119.23224 
   5   6   6     0.98304   187.04843   197.35032 
   5   6   7     0.90849   766.00984   820.24716 
   5   6   8     0.84048    87.33968    88.27572 
   5   6   9     0.77925   571.96701   584.16858 
   5   6  10     0.72448    29.30615    29.57049 
   5   6  11     0.67561    52.66328    53.96688 
   5   6  12     0.63200    10.10984    10.12501 
   5   6  13     0.59301   313.88127   314.53136 
   5   6  14     0.55807     3.17884     3.14341 
   5   7   1     1.24946    42.49754    44.19233 
   5   7   2     1.21148    37.33132    36.99672 
   5   7   3     1.15520    18.75377    18.44273 
   5   7   4     1.08814   273.63380   285.61978 
   5   7   5     1.01694    26.66271    26.75172 
   5   7   6     0.94637    15.73420    15.18699 
   5   7   7     0.87931    49.49539    49.77689 
   5   7   8     0.81722     6.34938     6.41189 
   5   7   9     0.76060     0.03178     0.03239 
   5   7  10     0.70942    40.30685    40.80046 
   5   7  11     0.66335     0.13772     0.13817 
   5   7  12     0.62193    59.90993    60.77059 
   5   7  13     0.58467     3.10466     3.11133 
   5   8   1     1.16651   558.12305   549.83260 
   5   8   2     1.13542   530.97867   538.72816 
   5   8   3     1.08870   828.77262   866.90642 
   5   8   4     1.03203   126.36924   123.82193 
   5   8   5     0.97069    15.63807    15.97928 
   5   8   6     0.90876   234.63558   250.69745 
   5   8   7     0.84889   103.47989   103.90293 
   5   8   8     0.79263   178.85014   177.23047 
   5   8   9     0.74066    61.50500    61.51780 
   5   8  10     0.69316     3.99557     3.97712 
   5   8  11     0.64999     0.21649     0.21779 
   5   8  12     0.61088     0.89116     0.89407 
   5   8  13     0.57546   144.63675   144.79552 
   5   9   1     1.08992    20.33958    21.33717 
   5   9   2     1.06443    66.70350    65.04480 
   5   9   3     1.02565   140.57202   137.49314 
   5   9   4     0.97786    51.72767    54.46362 
   5   9   5     0.92521     3.62690     3.51756 
   5   9   6     0.87111   117.18859   117.71940 
   5   9   7     0.81797    20.21426    20.37872 
   5   9   8     0.76728     0.14610     0.14956 
   5   9   9     0.71985    34.49309    34.28452 
   5   9  10     0.67601    10.48048    10.73653 
   5   9  11     0.63579    30.21834    30.38911 
   5   9  12     0.59905    50.41022    50.61229 
   5   9  13     0.56554     0.03861     0.03873 
   5  10   1     1.01993    17.71764    17.75062 
   5  10   2     0.99895   198.14548   205.40033 
   5  10   3     0.96669   124.50412   124.85318 
   5  10   4     0.92636   203.82666   196.58932 
   5  10   5     0.88124    99.64353    99.74293 
   5  10   6     0.83411   153.65155   157.87395 
   5  10   7     0.78711   436.39756   438.59087 
   5  10   8     0.74163    52.60475    52.49509 
   5  10   9     0.69855   435.81264   433.14357 
   5  10  10     0.65828     7.92764     8.04256 
   5  10  11     0.62097   112.86051   114.02569 
   5  10  12     0.58660     2.55570     2.58033 
   5  10  13     0.55503   157.15673   156.21737 
   5  11   1     0.95635    83.00996    83.09870 
   5  11   2     0.93899    57.51365    55.51939 
   5  11   3     0.91205    29.66935    30.00050 
   5  11   4     0.87795   139.93686   140.30554 
   5  11   5     0.83925    41.68938    42.19218 
   5  11   6     0.79825    34.67305    33.67732 
   5  11   7     0.75676    22.30771    22.95639 
   5  11   8     0.71608     1.89290     1.88168 
   5  11   9     0.67707     2.71509     2.75066 
   5  11  10     0.64021    23.05224    23.49364 
   5  11  11     0.60574     1.32665     1.33245 
   5  11  12     0.57371    67.44763    68.29890 
   5  12   1     0.89874  1448.16726  1494.29824 
   5  12   2     0.88429   138.67145   136.61062 
   5  12   3     0.86168  1012.17334  1019.58796 
   5  12   4     0.83275    78.36924    80.32237 
   5  12   5     0.79951   230.24766   223.56765 
   5  12   6     0.76382    94.08236    95.10189 
   5  12   7     0.72723    78.73094    79.22421 
   5  12   8     0.69092    49.37043    49.09177 
   5  12   9     0.65568    40.11821    40.31080 
   5  12  10     0.62204     0.20690     0.20975 
   5  12  11     0.59028    10.51716    10.52389 
   5  12  12     0.56052     0.37153     0.37634 
   5  13   1     0.84659    38.63003    38.09600 
   5  13   2     0.83448    51.20199    52.62730 
   5  13   3     0.81540   106.92358   105.94848 
   5  13   4     0.79075    29.15009    28.78456 
   5  13   5     0.76213     3.57141     3.61027 
   5  13   6     0.73103    87.18780    86.44805 
   5  13   7     0.69876     2.51434     2.50196 
   5  13   8     0.66636     2.21123     2.19838 
   5  13   9     0.63458     9.98738    10.02268 
   5  13  10     0.60394     8.74801     8.80995 
   5  13  11     0.57474    18.47136    18.55004 
   5  14   1     0.79935    20.22380    19.63519 
   5  14   2     0.78913    54.40076    54.10880 
   5  14   3     0.77293    12.49128    12.70524 
   5  14   4     0.75185    62.11435    62.96551 
   5  14   5     0.72711   144.65544   145.47337 
   5  14   6     0.69996    56.26407    56.21176 
   5  14   7     0.67148   279.81007   281.38531 
   5  14   8     0.64258    17.10359    17.10775 
   5  14   9     0.61394   321.38310   322.20034 
   5  14  10     0.58606     0.12124     0.12235 
   5  14  11     0.55927   159.43046   160.07653 
   5  15   1     0.75648    47.16550    48.66933 
   5  15   2     0.74780     7.35852     7.62824 
   5  15   3     0.73398    11.82065    11.71573 
   5  15   4     0.71585   109.54724   108.90310 
   5  15   5     0.69440    16.01846    15.90461 
   5  15   6     0.67064     1.53757     1.54781 
   5  15   7     0.64546     3.12380     3.14470 
   5  15   8     0.61967     3.52195     3.53005 
   5  15   9     0.59387     5.55216     5.56160 
   5  15  10     0.56853     8.62047     8.69658 
   5  16   1     0.71751   888.09219   881.91061 
   5  16   2     0.71009    33.84749    34.32898 
   5  16   3     0.69822   466.48205   462.93938 
   5  16   4     0.68256    50.84826    50.63736 
   5  16   5     0.66390   207.84752   206.68135 
   5  16   6     0.64304    38.02230    38.25317 
   5  16   7     0.62075    31.11501    31.33687 
   5  16   8     0.59770    11.76898    11.82272 
   5  16   9     0.57445    18.22732    18.38462 
   5  17   1     0.68200     9.62136     9.61912 
   5  17   2     0.67562    48.69637    49.90393 
   5  17   3     0.66537    27.10628    27.05148 
   5  17   4     0.65178     1.31453     1.31800 
   5  17   5     0.63547     0.54475     0.54681 
   5  17   6     0.61710    75.16313    75.57325 
   5  17   7     0.59732     0.00065     0.00065 
   5  17   8     0.57670     9.88120     9.96400 
   5  17   9     0.55573     0.77636     0.77055 
   5  18   1     0.64956     3.73024     3.75550 
   5  18   2     0.64404    30.92637    31.35877 
   5  18   3     0.63515    24.55993    24.62613 
   5  18   4     0.62329    39.60619    40.05062 
   5  18   5     0.60898   203.87164   203.71509 
   5  18   6     0.59276    36.31154    36.33061 
   5  18   7     0.57516   229.13059   229.16295 
   5  18   8     0.55668    10.52958    10.45913 
   5  19   1     0.61984     9.64767     9.66092 
   5  19   2     0.61504     1.65156     1.66576 
   5  19   3     0.60728     1.95439     1.97344 
   5  19   4     0.59689    70.05354    70.20083 
   5  19   5     0.58429     3.23487     3.23936 
   5  19   6     0.56992     5.88370     5.95181 
   5  19   7     0.55423     0.12126     0.12048 
   5  20   1     0.59255   589.76627   589.69524 
   5  20   2     0.58835    18.75507    18.85606 
   5  20   3     0.58155   274.79023   272.19436 
   5  20   4     0.57241    47.08234    47.61265 
   5  20   5     0.56126   148.34776   150.88880 
   5  21   1     0.56742     4.02147     4.03020 
   5  21   2     0.56373    30.48939    30.85684 
   5  21   3     0.55774     6.82928     6.75217 
   6   0   0     1.47595   115.82324   115.89560 
   6   0   1     1.45456    13.72525    13.90101 
   6   0   2     1.39557    35.79006    35.42531 
   6   0   3     1.31143    16.38126    16.44094 
   6   0   4     1.21568   129.91027   127.25247 
   6   0   5     1.11870    28.16769    29.42359 
   6   0   6     1.02671   260.20799   257.19821 
   6   0   7     0.94262    37.36565    36.25359 
   6   0   8     0.86729     1.12913     1.11766 
   6   0   9     0.80047   100.40256    97.20395 
   6   0  10     0.74144   101.47712   101.37685 
   6   0  11     0.68930    37.39357    37.31237 
   6   0  12     0.64316    92.37199    93.10633 
   6   0  13     0.60220     0.56813     0.57218 
   6   0  14     0.56571     0.20514     0.20555 
   6   1   0     1.46594     0.17596     0.18175 
   6   1   1     1.44498    23.08945    23.62448 
   6   1   2     1.38710     3.78180     3.70000 
   6   1   3     1.30439    37.28843    38.12847 
   6   1   4     1.21007    19.13623    19.11907 
   6   1   5     1.11432    33.57023    35.67482 
   6   1   6     1.02332     0.00625     0.00605 
   6   1   7     0.94000    24.68758    23.67699 
   6   1   8     0.86524    12.30121    12.11565 
   6   1   9     0.79886     8.68404     8.42820 
   6   1  10     0.74016     0.00361     0.00360 
   6   1  11     0.68827    40.86617    40.59631 
   6   1  12     0.64233     1.42190     1.42113 
   6   1  13     0.60152    13.22526    13.26947 
   6   1  14     0.56515     0.53190     0.53540 
   6   2   0     1.43710   740.28222   750.99651 
   6   2   1     1.41733   598.54418   587.87119 
   6   2   2     1.36259   128.79341   129.51563 
   6   2   3     1.28395    40.86685    42.90190 
   6   2   4     1.19369   162.18045   160.32526 
   6   2   5     1.10149   139.62392   144.34809 
   6   2   6     1.01336   818.75457   824.80612 
   6   2   7     0.93226   236.61608   235.98675 
   6   2   8     0.85920    32.18705    31.90608 
   6   2   9     0.79410   114.82831   114.33601 
   6   2  10     0.73637   248.66398   252.03603 
   6   2  11     0.68522    43.35110    43.14071 
   6   2  12     0.63984   230.78680   234.34053 
   6   2  13     0.59948     3.20363     3.21048 
   6   2  14     0.56345     0.03072     0.03115 
   6   3   0     1.39259    23.28190    22.79043 
   6   3   1     1.37458    96.27426    95.13231 
   6   3   2     1.32448    19.14965    19.13168 
   6   3   3     1.25191    39.53286    41.68967 
   6   3   4     1.16781     7.98017     7.78247 
   6   3   5     1.08106    19.58509    19.39034 
   6   3   6     0.99738     0.74767     0.78315 
   6   3   7     0.91977   104.83576   102.38968 
   6   3   8     0.84939   107.32965   108.28731 
   6   3   9     0.78634    32.70579    32.84943 
   6   3  10     0.73017    13.65170    13.58520 
   6   3  11     0.68021    39.23804    39.70093 
   6   3  12     0.63576     1.48440     1.49249 
   6   3  13     0.59612     1.14916     1.14847 
   6   3  14     0.56066     3.56020     3.60833 
   6   4   0     1.33670   247.71592   243.44453 
   6   4   1     1.32075     2.73260     2.73848 
   6   4   2     1.27612   123.94449   127.33777 
   6   4   3     1.21083   125.77085   125.06831 
   6   4   4     1.13426   289.01037   291.77458 
   6   4   5     1.05428     0.13887     0.13729 
   6   4   6     0.97624   488.07457   508.78990 
   6   4   7     0.90311    10.92978    11.17510 
   6   4   8     0.83622    12.37618    12.81542 
   6   4   9     0.77585   182.52779   184.51844 
   6   4  10     0.72175   180.58906   181.30561 
   6   4  11     0.67339    41.68559    41.92403 
   6   4  12     0.63018   163.46678   163.57117 
   6   4  13     0.59151     0.99061     0.99201 
   6   4  14     0.55682     0.24084     0.23926 
   6   5   0     1.27383    24.73887    25.68966 
   6   5   1     1.26001     4.00190     4.33932 
   6   5   2     1.22108     8.96326     8.80162 
   6   5   3     1.16352   135.85059   135.83366 
   6   5   4     1.09509     6.93033     7.28611 
   6   5   5     1.02260   161.61786   157.00546 
   6   5   6     0.95092    63.37377    62.88156 
   6   5   7     0.88296     9.93078     9.83638 
   6   5   8     0.82014     2.46935     2.46783 
   6   5   9     0.76296     4.02913     4.07758 
   6   5  10     0.71134    43.39277    43.91241 
   6   5  11     0.66491    24.42936    24.33448 
   6   5  12     0.62321     3.63848     3.67960 
   6   5  13     0.58574    33.19152    33.47221 
   6   6   0     1.20784   656.11070   657.17801 
   6   6   1     1.19604   404.44175   395.75503 
   6   6   2     1.16259   265.71916   265.93354 
   6   6   3     1.11258     9.43977    10.01805 
   6   6   4     1.05231   240.66946   240.52365 
   6   6   5     0.98751     0.82104     0.84331 
   6   6   6     0.92251   645.56731   631.08695 
   6   6   7     0.86007   239.87555   240.44113 
   6   6   8     0.80170    66.76429    64.73260 
   6   6   9     0.74805    30.51212    31.67927 
   6   6  10     0.69920   208.08671   207.48578 
   6   6  11     0.65497    26.39740    26.48605 
   6   6  12     0.61501   192.70067   194.31581 
   6   6  13     0.57891     4.41156     4.44537 
   6   7   0     1.14167    27.14661    27.25413 
   6   7   1     1.13169   187.54474   188.52905 
   6   7   2     1.10323   127.91951   132.63808 
   6   7   3     1.06023   116.44642   115.06658 
   6   7   4     1.00768     8.29409     8.21837 
   6   7   5     0.95035    61.78379    61.18303 
   6   7   6     0.89200     2.11755     2.24341 
   6   7   7     0.83518   220.97063   227.59295 
   6   7   8     0.78143   227.66969   230.46631 
   6   7   9     0.73150    30.00406    29.77499 
   6   7  10     0.68563    17.70357    17.60284 
   6   7  11     0.64378    26.88501    27.26173 
   6   7  12     0.60571     9.98170    10.02668 
   6   7  13     0.57114     0.14470     0.14665 
   6   8   0     1.07736    34.61776    34.26262 
   6   8   1     1.06895     0.68404     0.67372 
   6   8   2     1.04487    13.20646    12.64366 
   6   8   3     1.00812    95.56674    94.73609 
   6   8   4     0.96263    96.36930    96.76610 
   6   8   5     0.91228    17.04046    17.20500 
   6   8   6     0.86029   234.61610   235.78414 
   6   8   7     0.80899     0.15080     0.14909 
   6   8   8     0.75986    33.34862    34.16070 
   6   8   9     0.71371    71.07880    71.39473 
   6   8  10     0.67092   116.35925   117.03928 
   6   8  11     0.63155     7.26012     7.27522 
   6   8  12     0.59549   112.63114   112.29572 
   6   8  13     0.56255     0.42549     0.43244 
   6   9   0     1.01615    73.10801    73.50593 
   6   9   1     1.00909     1.32580     1.31672 
   6   9   2     0.98876     2.15224     2.20785 
   6   9   3     0.95744   241.85687   241.52262 
   6   9   4     0.91822    38.12651    37.39464 
   6   9   5     0.87421   291.07602   289.20248 
   6   9   6     0.82815    97.09966   100.06646 
   6   9   7     0.78209     7.58094     7.66198 
   6   9   8     0.73743     0.82347     0.82685 
   6   9   9     0.69503    22.19936    21.95326 
   6   9  10     0.65533    76.41499    76.79638 
   6   9  11     0.61850    10.89828    10.92346 
   6   9  12     0.58452     3.11399     3.11939 
   6  10   0     0.95872   652.76108   658.26480 
   6  10   1     0.95279    73.96112    73.58661 
   6  10   2     0.93562   644.85665   636.33668 
   6  10   3     0.90895     0.85700     0.91343 
   6  10   4     0.87519   447.60818   444.02778 
   6  10   5     0.83684     2.06012     2.13540 
   6  10   6     0.79617   509.99506   496.81024 
   6  10   7     0.75499    43.85545    45.54680 
   6  10   8     0.71458   153.14822   152.58407 
   6  10   9     0.67580     5.97066     6.12109 
   6  10  10     0.63914   168.91591   170.29659 
   6  10  11     0.60483     4.13956     4.17596 
   6  10  12     0.57294   143.41903   144.76595 
   6  11   0     0.90535    17.96358    18.64820 
   6  11   1     0.90034   150.01929   154.73682 
   6  11   2     0.88581   113.10578   112.28178 
   6  11   3     0.86308   113.11204   112.08128 
   6  11   4     0.83402     7.13728     7.33317 
   6  11   5     0.80063    59.02660    57.11171 
   6  11   6     0.76480     0.14467     0.14599 
   6  11   7     0.72808   170.04948   171.45020 
   6  11   8     0.69164   142.39682   141.61338 
   6  11   9     0.65630    22.36846    22.42501 
   6  11  10     0.62257    14.96704    15.15392 
   6  11  11     0.59073    20.78988    20.77302 
   6  11  12     0.56091     9.19271     9.33063 
   6  12   0     0.85602    30.39962    30.18052 
   6  12   1     0.85179     0.00000     0.00000 
   6  12   2     0.83945    54.73906    55.36353 
   6  12   3     0.82003     0.00457     0.00457 
   6  12   4     0.79498    93.19934    91.82879 
   6  12   5     0.76591     2.14178     2.16584 
   6  12   6     0.73436   125.32744   124.77312 
   6  12   7     0.70167     1.87596     1.88766 
   6  12   8     0.66889    63.21782    63.44207 
   6  12   9     0.63676     2.22779     2.23612 
   6  12  10     0.60582    64.23797    64.50102 
   6  12  11     0.57636     0.01749     0.01763 
   6  13   0     0.81060    26.50972    25.96089 
   6  13   1     0.80700     0.07407     0.07373 
   6  13   2     0.79649    13.76365    13.39186 
   6  13   3     0.77984   149.74332   152.08072 
   6  13   4     0.75820     7.94648     8.16944 
   6  13   5     0.73286   189.37405   186.86052 
   6  13   6     0.70508    37.51019    37.02972 
   6  13   7     0.67600     2.52247     2.58424 
   6  13   8     0.64653     5.07149     5.11955 
   6  13   9     0.61739    14.85119    14.88191 
   6  13  10     0.58906    48.71442    48.89177 
   6  13  11     0.56187     5.20906     5.31114 
   6  14   0     0.76884   158.52088   163.22241 
   6  14   1     0.76577     0.15290     0.15455 
   6  14   2     0.75677   257.73810   265.20327 
   6  14   3     0.74245     3.34577     3.32522 
   6  14   4     0.72370   225.72313   228.00213 
   6  14   5     0.70156    11.94378    12.02323 
   6  14   6     0.67708   246.84910   250.06643 
   6  14   7     0.65120     0.41811     0.41921 
   6  14   8     0.62474   188.45736   191.31341 
   6  14   9     0.59833     0.38860     0.39142 
   6  14  10     0.57244   132.24540   133.71350 
   6  15   0     0.73047    34.57712    34.33350 
   6  15   1     0.72783    65.66675    66.22281 
   6  15   2     0.72009     7.55365     7.51606 
   6  15   3     0.70773    63.52952    63.00564 
   6  15   4     0.69143     0.22089     0.21960 
   6  15   5     0.67205    36.40045    36.59940 
   6  15   6     0.65043     1.47058     1.47738 
   6  15   7     0.62739    75.12954    75.24127 
   6  15   8     0.60362    58.74140    59.25038 
   6  15   9     0.57970    11.14986    11.19101 
   6  15  10     0.55606     2.79445     2.77229 
   6  16   0     0.69520   130.00135   128.39461 
   6  16   1     0.69293     0.50644     0.50430 
   6  16   2     0.68624   277.76740   275.54942 
   6  16   3     0.67551     6.90060     7.06827 
   6  16   4     0.66130   191.94005   195.30943 
   6  16   5     0.64428     6.93422     7.02545 
   6  16   6     0.62516   104.35053   106.03571 
   6  16   7     0.60462     1.03070     1.03949 
   6  16   8     0.58326    76.40380    76.35511 
   6  16   9     0.56160     2.43669     2.48212 
   6  17   0     0.66276     0.50894     0.51528 
   6  17   1     0.66079     1.58856     1.61521 
   6  17   2     0.65498    38.61477    38.74683 
   6  17   3     0.64563    98.87779    99.50930 
   6  17   4     0.63319     0.24805     0.24929 
   6  17   5     0.61820   126.74877   126.81267 
   6  17   6     0.60125    12.36478    12.40396 
   6  17   7     0.58291     8.91087     8.89444 
   6  17   8     0.56370     0.17094     0.17303 
   6  18   0     0.63287    32.68054    32.76059 
   6  18   1     0.63115     3.11854     3.12427 
   6  18   2     0.62609   102.17700   104.08862 
   6  18   3     0.61790     1.06056     1.06031 
   6  18   4     0.60697   121.88867   122.91790 
   6  18   5     0.59373     5.52606     5.53832 
   6  18   6     0.57867   141.53126   142.64200 
   6  18   7     0.56226     6.10698     6.22075 
   6  19   0     0.60529    32.99357    33.23329 
   6  19   1     0.60379    30.73608    30.97060 
   6  19   2     0.59935     5.31809     5.33075 
   6  19   3     0.59216    66.30043    66.36083 
   6  19   4     0.58252     2.15700     2.14431 
   6  19   5     0.57078    52.32811    53.05447 
   6  19   6     0.55736     0.00274     0.00271 
   6  20   0     0.57980   120.80732   121.30503 
   6  20   1     0.57848     0.54714     0.55070 
   6  20   2     0.57457   261.27465   263.09190 
   6  20   3     0.56823     7.59657     7.66352 
   6  20   4     0.55969   156.93718   158.41190 
   6  21   0     0.55619     8.21572     8.15198 
   6  21   1     0.55503     7.64321     7.59743 
   7   0   1     1.25155   456.31507   480.94479 
   7   0   2     1.21338     5.44135     5.36377 
   7   0   3     1.15685     6.51663     6.40429 
   7   0   4     1.08952   102.30593   107.28380 
   7   0   5     1.01807   220.22041   220.93978 
   7   0   6     0.94727    17.67306    17.10169 
   7   0   7     0.88003     0.13208     0.13273 
   7   0   8     0.81780     3.74983     3.78266 
   7   0   9     0.76107    14.07889    14.30549 
   7   0  10     0.70980    62.53165    63.40646 
   7   0  11     0.66366    47.88306    47.75888 
   7   0  12     0.62218    74.63354    75.61776 
   7   0  13     0.58488     0.69253     0.69478 
   7   1   1     1.24543    45.06809    45.54114 
   7   1   2     1.20780    11.17443    11.18894 
   7   1   3     1.15201     0.60627     0.58586 
   7   1   4     1.08548   172.31554   177.49659 
   7   1   5     1.01477     6.95843     7.03365 
   7   1   6     0.94461    21.10672    20.46832 
   7   1   7     0.87790     7.08027     7.09715 
   7   1   8     0.81609    31.52153    31.54166 
   7   1   9     0.75969    37.14209    38.08646 
   7   1  10     0.70868    41.98735    42.18803 
   7   1  11     0.66274    17.31150    17.52991 
   7   1  12     0.62143     0.15176     0.15403 
   7   1  13     0.58425     3.67805     3.68294 
   7   2   1     1.22760    40.65577    39.40292 
   7   2   2     1.19152   477.04686   470.27621 
   7   2   3     1.13786   118.40165   120.12842 
   7   2   4     1.07361   237.23274   236.32116 
   7   2   5     1.00505   803.13111   796.61088 
   7   2   6     0.93676   166.86177   164.15201 
   7   2   7     0.87159   152.75553   153.56876 
   7   2   8     0.81101    86.50767    84.81436 
   7   2   9     0.75559   533.98778   554.95086 
   7   2  10     0.70535   122.57710   120.80880 
   7   2  11     0.66001   381.51098   386.43498 
   7   2  12     0.61918   103.53297   104.01454 
   7   2  13     0.58238     4.39823     4.36492 
   7   3   1     1.19951    59.51360    58.29143 
   7   3   2     1.16578    12.06763    11.95707 
   7   3   3     1.11538    90.52106    95.77964 
   7   3   4     1.05467    30.89671    30.56661 
   7   3   5     0.98946    28.18459    28.95610 
   7   3   6     0.92410    39.63840    38.74324 
   7   3   7     0.86136     0.39274     0.39632 
   7   3   8     0.80275     3.01228     2.93922 
   7   3   9     0.74889     3.99395     4.15611 
   7   3  10     0.69989    26.33943    26.31007 
   7   3  11     0.65554    76.54099    76.93618 
   7   3  12     0.61548     3.49961     3.53886 
   7   3  13     0.57930     3.94268     3.96060 
   7   4   1     1.16323  2134.62936  2135.07552 
   7   4   2     1.13239     0.45051     0.45222 
   7   4   3     1.08603   351.16816   363.21582 
   7   4   4     1.02976   293.98519   290.41932 
   7   4   5     0.96880   699.22499   707.10103 
   7   4   6     0.90720     0.53253     0.56820 
   7   4   7     0.84763    17.88971    17.67114 
   7   4   8     0.79160    18.60956    18.33537 
   7   4   9     0.73982    33.56426    33.48116 
   7   4  10     0.69247   106.47697   106.06375 
   7   4  11     0.64942    88.06267    88.66046 
   7   4  12     0.61041   101.22217   101.72570 
   7   4  13     0.57507     0.00020     0.00020 
   7   5   1     1.12109   310.72529   325.59924 
   7   5   2     1.09341    13.32383    13.89103 
   7   5   3     1.05150     5.78180     5.81117 
   7   5   4     1.00018    81.44038    83.35388 
   7   5   5     0.94405    80.65007    78.31715 
   7   5   6     0.88678    11.07454    11.01334 
   7   5   7     0.83090     0.48032     0.48338 
   7   5   8     0.77792    25.53041    26.15953 
   7   5   9     0.72862    42.87623    43.15039 
   7   5  10     0.68326    24.88619    24.70061 
   7   5  11     0.64181     2.08028     2.08935 
   7   5  12     0.60407     7.43616     7.48887 
   7   5  13     0.56976    26.05314    26.33990 
   7   6   1     1.07532   301.20718   301.83984 
   7   6   2     1.05082   363.58803   365.80847 
   7   6   3     1.01346    45.39469    45.75884 
   7   6   4     0.96727    27.32839    27.45710 
   7   6   5     0.91623   219.18429   216.89060 
   7   6   6     0.86360   184.02327   181.63402 
   7   6   7     0.81174   114.80850   113.06656 
   7   6   8     0.76213    86.54000    87.48067 
   7   6   9     0.71559   408.42708   405.99944 
   7   6  10     0.67248    49.72386    49.96745 
   7   6  11     0.63286   306.51967   307.24354 
   7   6  12     0.59659    51.12949    51.19668 
   7   6  13     0.56347    15.56578    15.78301 
   7   7   1     1.02783   182.32403   181.07785 
   7   7   2     1.00637     0.94897     0.93966 
   7   7   3     0.97341   420.19724   429.58069 
   7   7   4     0.93227    12.09136    12.05800 
   7   7   5     0.88632    12.16908    12.09756 
   7   7   6     0.83842    26.09484    26.62075 
   7   7   7     0.79072     9.67878     9.55872 
   7   7   8     0.74465     3.69565     3.71784 
   7   7   9     0.70107     1.55988     1.56930 
   7   7  10     0.66039     6.44468     6.53931 
   7   7  11     0.62274   113.59308   114.98140 
   7   7  12     0.58809     8.73987     8.79046 
   7   7  13     0.55629    16.34014    16.21654 
   7   8   1     0.98015  3199.53677  3380.26926 
   7   8   2     0.96149     3.92701     3.97754 
   7   8   3     0.93262  1127.40335  1120.77041 
   7   8   4     0.89625   154.77710   157.05855 
   7   8   5     0.85519   793.15498   790.55475 
   7   8   6     0.81193     6.16151     6.07478 
   7   8   7     0.76838    73.05930    75.24498 
   7   8   8     0.72591    12.77303    12.82431 
   7   8   9     0.68536    33.13117    32.96465 
   7   8  10     0.64721    42.76539    43.23266 
   7   8  11     0.61165    65.38683    65.53332 
   7   8  12     0.57873    32.23656    32.49047 
   7   9   1     0.93338   406.45145   401.86253 
   7   9   2     0.91723    18.35368    18.06369 
   7   9   3     0.89206     6.06626     6.42226 
   7   9   4     0.86008    69.17248    69.34280 
   7   9   5     0.82360   123.77497   125.39927 
   7   9   6     0.78474    13.61311    13.55919 
   7   9   7     0.74522     5.57237     5.62362 
   7   9   8     0.70629    31.21231    30.74267 
   7   9   9     0.66877    57.62634    57.74832 
   7   9  10     0.63318    14.35304    14.42438 
   7   9  11     0.59978    11.47185    11.50024 
   7   9  12     0.56864    11.66961    11.77244 
   7  10   1     0.88829   202.53518   202.89917 
   7  10   2     0.87433    75.47374    74.95821 
   7  10   3     0.85245    17.05677    17.18725 
   7  10   4     0.82441     3.11942     3.15353 
   7  10   5     0.79212   119.58243   118.02502 
   7  10   6     0.75737    44.77652    45.90391 
   7  10   7     0.72166   185.72765   186.44561 
   7  10   8     0.68613    27.83653    27.62466 
   7  10   9     0.65159   313.28826   314.07037 
   7  10  10     0.61854    10.78301    10.81080 
   7  10  11     0.58729   221.67163   223.09526 
   7  10  12     0.55796     6.91960     6.83989 
   7  11   1     0.84534    88.65914    87.77140 
   7  11   2     0.83328    15.12565    15.53086 
   7  11   3     0.81427   278.92785   275.46846 
   7  11   4     0.78973     0.97480     0.96630 
   7  11   5     0.76121    33.62160    34.13237 
   7  11   6     0.73022    64.22314    63.88342 
   7  11   7     0.69805     0.00446     0.00443 
   7  11   8     0.66575     0.33012     0.32931 
   7  11   9     0.63405     0.13971     0.14053 
   7  11  10     0.60348     1.44474     1.45894 
   7  11  11     0.57435   102.37796   103.38302 
   7  12   1     0.80477  1325.93233  1290.14825 
   7  12   2     0.79434     1.74646     1.73489 
   7  12   3     0.77783   615.55444   630.36919 
   7  12   4     0.75635    19.20363    19.84260 
   7  12   5     0.73118   297.71408   295.23815 
   7  12   6     0.70359     6.37166     6.34732 
   7  12   7     0.67468    57.02612    57.83070 
   7  12   8     0.64538     2.74606     2.76494 
   7  12   9     0.61638    17.99000    18.22968 
   7  12  10     0.58819     4.72952     4.75618 
   7  12  11     0.56112    37.98877    38.61040 
   7  13   1     0.76668   146.37714   148.78769 
   7  13   2     0.75765     0.01378     0.01412 
   7  13   3     0.74328     1.74365     1.73864 
   7  13   4     0.72447   104.89193   105.84511 
   7  13   5     0.70226    38.99346    39.06469 
   7  13   6     0.67771     1.06965     1.08021 
   7  13   7     0.65176    16.84521    16.88931 
   7  13   8     0.62523    37.87413    38.49992 
   7  13   9     0.59876    53.97058    54.29213 
   7  13  10     0.57281     9.12208     9.20905 
   7  14   1     0.73106     0.88402     0.87653 
   7  14   2     0.72322    10.63715    10.72808 
   7  14   3     0.71069    54.34085    55.02001 
   7  14   4     0.69420     7.01012     6.96358 
   7  14   5     0.67458   174.12794   176.40240 
   7  14   6     0.65273    10.84946    10.88781 
   7  14   7     0.62945   287.78066   286.97530 
   7  14   8     0.60546     9.30113     9.35832 
   7  14   9     0.58133   254.79187   252.81094 
   7  14  10     0.55749     0.09737     0.09642 
   7  15   1     0.69784    15.94761    15.80817 
   7  15   2     0.69101    22.30439    22.17605 
   7  15   3     0.68006    85.65930    86.71836 
   7  15   4     0.66556     3.29856     3.29233 
   7  15   5     0.64822    25.31791    25.50027 
   7  15   6     0.62876    55.18059    55.02068 
   7  15   7     0.60787     2.77846     2.79983 
   7  15   8     0.58618     0.32823     0.33132 
   7  15   9     0.56420     0.37993     0.38391 
   7  16   1     0.66690   611.79539   608.02260 
   7  16   2     0.66093    13.44925    13.68025 
   7  16   3     0.65133   366.35114   367.26962 
   7  16   4     0.63856    10.53676    10.59245 
   7  16   5     0.62320   114.80743   116.10681 
   7  16   6     0.60584    22.67973    22.76967 
   7  16   7     0.58709    41.33085    41.62609 
   7  16   8     0.56748     4.38623     4.40019 
   7  17   1     0.63810    49.86552    50.00258 
   7  17   2     0.63286     2.30280     2.30835 
   7  17   3     0.62442     0.37180     0.37742 
   7  17   4     0.61314    55.48549    55.58035 
   7  17   5     0.59950    10.25511    10.27693 
   7  17   6     0.58401     6.58457     6.59044 
   7  17   7     0.56716     9.25746     9.23672 
   7  18   1     0.61129     0.97638     0.97850 
   7  18   2     0.60669     5.58419     5.62041 
   7  18   3     0.59923    49.10194    49.24414 
   7  18   4     0.58925    33.99389    34.10354 
   7  18   5     0.57711   120.96478   121.73843 
   7  18   6     0.56325    10.29107    10.44325 
   7  19   1     0.58633    18.75353    18.93699 
   7  19   2     0.58226    10.18285    10.09404 
   7  19   3     0.57566    35.34372    35.45745 
   7  19   4     0.56679     5.13145     5.11011 
   7  19   5     0.55597     3.84947     3.81888 
   7  20   1     0.56307   520.68128   528.45995 
   7  20   2     0.55947    16.55606    16.67117 
   7  20   3     0.55360   332.59875   334.43164 
   8   0   0     1.10696     0.18319     0.19180 
   8   0   1     1.09785     8.84005     9.22434 
   8   0   2     1.07182   809.64718   803.68925 
   8   0   3     1.03225    47.73647    46.74768 
   8   0   4     0.98357   344.73011   363.88682 
   8   0   5     0.93005    16.50914    16.74004 
   8   0   6     0.87515     0.80651     0.80007 
   8   0   7     0.82130     1.51814     1.51698 
   8   0   8     0.77003   422.53542   435.96714 
   8   0   9     0.72212    15.23692    15.30311 
   8   0  10     0.67789     2.33709     2.35747 
   8   0  11     0.63736    31.26590    31.28849 
   8   0  12     0.60035    26.11067    26.19968 
   8   0  13     0.56664     9.35532     9.32779 
   8   1   0     1.10272     1.30544     1.35242 
   8   1   1     1.09372    31.11492    32.48978 
   8   1   2     1.06797     5.89048     5.79402 
   8   1   3     1.02881     2.32533     2.30518 
   8   1   4     0.98059    17.49647    18.49290 
   8   1   5     0.92753     5.16741     5.04861 
   8   1   6     0.87305     0.04814     0.04815 
   8   1   7     0.81957    26.58495    26.64050 
   8   1   8     0.76860     0.37407     0.38522 
   8   1   9     0.72094    43.01990    43.08568 
   8   1  10     0.67691     3.55154     3.60229 
   8   1  11     0.63654    18.78561    18.88730 
   8   1  12     0.59967     3.38015     3.38756 
   8   1  13     0.56607     2.04247     2.04527 
   8   2   0     1.09029    10.11747    10.60900 
   8   2   1     1.08158     3.65531     3.63358 
   8   2   2     1.05666   603.43136   602.53507 
   8   2   3     1.01869     4.24316     4.25912 
   8   2   4     0.97182   129.14663   132.45024 
   8   2   5     0.92009   132.82969   129.61082 
   8   2   6     0.86684    28.55606    28.29954 
   8   2   7     0.81442     3.75620     3.70811 
   8   2   8     0.76435   809.45278   816.91352 
   8   2   9     0.71743    17.75145    17.62492 
   8   2  10     0.67401     3.10985     3.13597 
   8   2  11     0.63412    49.76398    50.04489 
   8   2  12     0.59765    69.54272    69.84397 
   8   2  13     0.56436    58.74479    59.37128 
   8   3   0     1.07046     5.91560     5.85276 
   8   3   1     1.06222     0.38154     0.37470 
   8   3   2     1.03858     0.30193     0.28958 
   8   3   3     1.00247    43.86995    43.96820 
   8   3   4     0.95770     0.00275     0.00274 
   8   3   5     0.90808    48.41254    51.91939 
   8   3   6     0.85677     0.29031     0.28695 
   8   3   7     0.80606     0.10690     0.10520 
   8   3   8     0.75742     0.00881     0.00903 
   8   3   9     0.71169     0.01738     0.01760 
   8   3  10     0.66924     1.51756     1.52892 
   8   3  11     0.63015    42.34642    42.36749 
   8   3  12     0.59432     1.82695     1.82717 
   8   3  13     0.56156    13.16841    13.41176 
   8   4   0     1.04444   148.27336   141.57567 
   8   4   1     1.03678    10.08236     9.61201 
   8   4   2     1.01477   337.93934   341.59371 
   8   4   3     0.98100    75.16820    79.40315 
   8   4   4     0.93893   157.93503   152.54298 
   8   4   5     0.89204    26.90462    28.49189 
   8   4   6     0.84326     8.88691     8.91433 
   8   4   7     0.79477     2.70084     2.66847 
   8   4   8     0.74804   569.57260   591.33019 
   8   4   9     0.70389    21.01250    20.90310 
   8   4  10     0.66274     6.89216     6.97913 
   8   4  11     0.62472    48.47945    49.21408 
   8   4  12     0.58975    46.30959    46.43885 
   8   4  13     0.55770    10.55016    10.43321 
   8   5   0     1.01362    10.58696    10.68073 
   8   5   1     1.00661   173.38161   171.66868 
   8   5   2     0.98643    34.82600    35.90643 
   8   5   3     0.95533    15.94832    15.99276 
   8   5   4     0.91635     0.33008     0.32640 
   8   5   5     0.87260    16.49288    16.53623 
   8   5   6     0.82678     7.37850     7.53378 
   8   5   7     0.78094   157.19476   159.01817 
   8   5   8     0.73647     4.93940     5.00485 
   8   5   9     0.69422    91.63116    91.01790 
   8   5  10     0.65465    12.61216    12.62810 
   8   5  11     0.61793     2.71602     2.71549 
   8   5  12     0.58403    20.59591    20.61548 
   8   6   0     0.97941   494.46213   521.21415 
   8   6   1     0.97308     5.40700     5.53435 
   8   6   2     0.95481  1790.04565  1793.71702 
   8   6   3     0.92653    15.12726    14.59809 
   8   6   4     0.89084   693.52021   733.78790 
   8   6   5     0.85049   104.66024   105.84705 
   8   6   6     0.80790   217.18314   216.94656 
   8   6   7     0.76497     7.50383     7.57342 
   8   6   8     0.72303   694.13111   699.40745 
   8   6   9     0.68293     7.06237     7.01758 
   8   6  10     0.64516    33.05951    33.31725 
   8   6  11     0.60992    20.39382    20.47685 
   8   6  12     0.57726    69.76615    70.13629 
   8   7   0     0.94312    35.14626    34.14480 
   8   7   1     0.93747    17.59547    17.22702 
   8   7   2     0.92110     7.33914     7.15197 
   8   7   3     0.89563   119.38352   121.25899 
   8   7   4     0.86327    12.96972    12.82980 
   8   7   5     0.82640   109.00506   110.87391 
   8   7   6     0.78717     0.02647     0.02660 
   8   7   7     0.74730    15.39851    15.88919 
   8   7   8     0.70805     0.44964     0.44758 
   8   7   9     0.67027    20.05219    20.21578 
   8   7  10     0.63446    11.26761    11.31371 
   8   7  11     0.60086    52.62749    52.78640 
   8   7  12     0.56956    11.11927    11.23701 
   8   8   0     0.90588   123.14895   128.80402 
   8   8   1     0.90087     0.14973     0.15385 
   8   8   2     0.88631    34.76789    34.56350 
   8   8   3     0.86355    90.01495    88.87290 
   8   8   4     0.83444    34.33496    35.28912 
   8   8   5     0.80100    56.74931    54.87393 
   8   8   6     0.76512     0.59493     0.60059 
   8   8   7     0.72836    14.09980    14.20558 
   8   8   8     0.69188   263.37227   262.09153 
   8   8   9     0.65650    13.02072    13.04836 
   8   8  10     0.62274    23.09730    23.37960 
   8   8  11     0.59088    18.23852    18.22206 
   8   8  12     0.56104    37.66059    38.25672 
   8   9   0     0.86858     1.31611     1.29671 
   8   9   1     0.86416   187.51527   184.72181 
   8   9   2     0.85129    18.28533    18.48324 
   8   9   3     0.83106     5.91215     5.95879 
   8   9   4     0.80501     5.82315     5.67192 
   8   9   5     0.77487     3.37312     3.38861 
   8   9   6     0.74225     0.60328     0.59984 
   8   9   7     0.70854   155.70740   156.12181 
   8   9   8     0.67483     2.09990     2.13352 
   8   9   9     0.64188   101.50136   101.84107 
   8   9  10     0.61022    15.78737    15.86695 
   8   9  11     0.58015     0.28939     0.29121 
   8  10   0     0.83189   232.56859   236.74156 
   8  10   1     0.82800     9.90370    10.20324 
   8  10   2     0.81666   668.40963   673.45968 
   8  10   3     0.79875    55.39414    53.76362 
   8  10   4     0.77554   384.45901   387.79663 
   8  10   5     0.74848   102.96550   107.08739 
   8  10   6     0.71896   204.98489   203.86158 
   8  10   7     0.68820    23.26320    23.10068 
   8  10   8     0.65718   351.03335   353.12680 
   8  10   9     0.62664     0.00273     0.00276 
   8  10  10     0.59708    87.32231    87.53730 
   8  10  11     0.56882     2.47346     2.49548 
   8  11   0     0.79630     0.32486     0.31628 
   8  11   1     0.79288    34.86453    34.63553 
   8  11   2     0.78291    10.14230    10.17526 
   8  11   3     0.76708    63.32697    64.67583 
   8  11   4     0.74646     0.01466     0.01496 
   8  11   5     0.72224    55.82496    56.07993 
   8  11   6     0.69561     5.07841     5.01359 
   8  11   7     0.66764    39.04945    38.85666 
   8  11   8     0.63921     2.13653     2.15492 
   8  11   9     0.61100    19.89815    19.95355 
   8  11  10     0.58350    13.89045    13.88667 
   8  11  11     0.55705    42.64031    42.35110 
   8  12   0     0.76211    64.92093    65.63010 
   8  12   1     0.75912     5.86163     6.03014 
   8  12   2     0.75035   280.99091   290.09116 
   8  12   3     0.73639    64.01211    64.88143 
   8  12   4     0.71808   204.96657   203.82640 
   8  12   5     0.69644    62.50466    61.91547 
   8  12   6     0.67247    68.77418    69.11216 
   8  12   7     0.64710    20.93108    21.16164 
   8  12   8     0.62111   126.66189   128.21586 
   8  12   9     0.59514     5.19988     5.18421 
   8  12  10     0.56964    51.75930    52.31599 
   8  13   0     0.72953    13.75515    13.76054 
   8  13   1     0.72690   105.51734   106.02711 
   8  13   2     0.71919     4.10180     4.07739 
   8  13   3     0.70687     4.66505     4.60446 
   8  13   4     0.69063    21.46888    21.35534 
   8  13   5     0.67131     2.51957     2.53363 
   8  13   6     0.64977     0.21685     0.21827 
   8  13   7     0.62680    95.29369    96.23959 
   8  13   8     0.60309     1.96571     1.99034 
   8  13   9     0.57923    51.01325    51.27488 
   8  13  10     0.55564     5.12851     5.09186 
   8  14   0     0.69864    56.23859    55.92352 
   8  14   1     0.69634     4.23511     4.19494 
   8  14   2     0.68955   108.48184   108.23361 
   8  14   3     0.67866    39.90013    40.07731 
   8  14   4     0.66426   139.55448   138.55289 
   8  14   5     0.64701    46.81753    47.33606 
   8  14   6     0.62766   157.88997   157.68200 
   8  14   7     0.60688    17.27829    17.41452 
   8  14   8     0.58529   157.64413   158.65513 
   8  14   9     0.56340     1.29542     1.31406 
   8  15   0     0.66948     7.16560     7.22952 
   8  15   1     0.66745     9.29374     9.24626 
   8  15   2     0.66146    27.88927    28.37036 
   8  15   3     0.65184    59.81580    59.97603 
   8  15   4     0.63904     1.80350     1.81704 
   8  15   5     0.62364    58.47796    59.18426 
   8  15   6     0.60626     1.58237     1.58875 
   8  15   7     0.58747     8.63406     8.68752 
   8  15   8     0.56782     0.00007     0.00007 
   8  16   0     0.64202   142.78352   142.99307 
   8  16   1     0.64022     5.63588     5.74435 
   8  16   2     0.63494   220.91616   221.50058 
   8  16   3     0.62641    25.39723    25.78965 
   8  16   4     0.61503   182.20344   183.75223 
   8  16   5     0.60126    36.53575    36.65161 
   8  16   6     0.58564   104.64950   105.51068 
   8  16   7     0.56865    13.59986    13.71980 
   8  17   0     0.61620    12.16798    12.33493 
   8  17   1     0.61461    53.65384    53.99628 
   8  17   2     0.60993     7.41332     7.44376 
   8  17   3     0.60236    31.58501    31.85227 
   8  17   4     0.59222     7.80072     7.80553 
   8  17   5     0.57990    27.72349    27.85640 
   8  17   6     0.56584     0.22544     0.22583 
   8  18   0     0.59196    69.35557    69.47687 
   8  18   1     0.59055     2.55095     2.54978 
   8  18   2     0.58640    84.93319    85.76783 
   8  18   3     0.57966    30.56138    30.66835 
   8  18   4     0.57060   129.83427   131.63440 
   8  18   5     0.55956    28.57740    28.81278 
   8  19   0     0.56921     5.01824     5.06777 
   8  19   1     0.56796     0.10119     0.10202 
   8  19   2     0.56425    11.41956    11.53976 
   8  19   3     0.55824    59.63122    59.02959 
   9   0   1     0.97755   505.24050   531.76562 
   9   0   2     0.95904    89.05060    90.12059 
   9   0   3     0.93038    65.60381    66.45766 
   9   0   4     0.89426   134.21121   137.75027 
   9   0   5     0.85347   131.55503   132.07576 
   9   0   6     0.81045   102.41998   100.29970 
   9   0   7     0.76713   117.62322   120.19667 
   9   0   8     0.72485     0.25733     0.25917 
   9   0   9     0.68447     3.73107     3.71020 
   9   0  10     0.64646    39.10428    39.45912 
   9   0  11     0.61102    71.15930    71.35250 
   9   0  12     0.57819    74.69962    74.96452 
   9   1   1     0.97463   145.96797   149.29515 
   9   1   2     0.95627    10.83197    10.84610 
   9   1   3     0.92786    48.17750    47.39532 
   9   1   4     0.89202    75.07611    79.51525 
   9   1   5     0.85152     0.91426     0.92376 
   9   1   6     0.80878    16.90752    16.75660 
   9   1   7     0.76572     6.43566     6.50418 
   9   1   8     0.72366    11.94032    12.05999 
   9   1   9     0.68347    40.97561    40.66319 
   9   1  10     0.64561    19.61020    19.73615 
   9   1  11     0.61031    24.30757    24.43222 
   9   1  12     0.57758     2.13966     2.14631 
   9   2   1     0.96601     1.85458     1.85605 
   9   2   2     0.94813   101.07631    98.51542 
   9   2   3     0.92041    57.45578    56.02159 
   9   2   4     0.88540   249.42150   247.08289 
   9   2   5     0.84575   193.28331   191.08763 
   9   2   6     0.80384    96.63423    94.08700 
   9   2   7     0.76152   367.46793   372.36291 
   9   2   8     0.72011    11.03511    10.98151 
   9   2   9     0.68047    90.75774    91.70865 
   9   2  10     0.64309    70.95381    71.43908 
   9   2  11     0.60817   330.73633   332.31901 
   9   2  12     0.57578   165.48108   166.19222 
   9   3   1     0.95214   238.54116   237.12922 
   9   3   2     0.93501    19.36914    19.10620 
   9   3   3     0.90839     1.05669     1.13229 
   9   3   4     0.87469    43.61473    43.27951 
   9   3   5     0.83640    28.30429    29.32608 
   9   3   6     0.79579    10.68924    10.43787 
   9   3   7     0.75467    40.89043    42.34884 
   9   3   8     0.71431    35.09005    35.02340 
   9   3   9     0.67557    62.34550    63.87769 
   9   3  10     0.63895     0.67938     0.68411 
   9   3  11     0.60467     0.13083     0.13196 
   9   3  12     0.57280     0.04599     0.04643 
   9   4   1     0.93369  1871.95737  1848.33772 
   9   4   2     0.91752    98.91203    97.22163 
   9   4   3     0.89233   507.67135   535.54701 
   9   4   4     0.86032   231.98881   233.19425 
   9   4   5     0.82381   467.82793   473.87131 
   9   4   6     0.78493   119.98307   119.65537 
   9   4   7     0.74538   284.62572   287.56818 
   9   4   8     0.70642     0.14097     0.13891 
   9   4   9     0.66889     0.13959     0.14008 
   9   4  10     0.63328    58.61714    58.94434 
   9   4  11     0.59986   126.48892   126.83053 
   9   4  12     0.56870   104.49373   105.41808 
   9   5   1     0.91147   106.90306   108.75989 
   9   5   2     0.89641     2.72933     2.76954 
   9   5   3     0.87288   155.69589   155.87580 
   9   5   4     0.84284    87.67863    88.19658 
   9   5   5     0.80843    62.52034    62.21027 
   9   5   6     0.77159    28.41037    29.17532 
   9   5   7     0.73393     1.58659     1.57171 
   9   5   8     0.69665     1.52873     1.51430 
   9   5   9     0.66057    32.21510    32.72150 
   9   5  10     0.62621    47.86091    48.70108 
   9   5  11     0.59384    85.70004    85.85429 
   9   5  12     0.56357     4.84853     4.91285 
   9   6   1     0.88636    87.34878    86.84183 
   9   6   2     0.87249    82.42200    82.68459 
   9   6   3     0.85074     2.23929     2.26458 
   9   6   4     0.82287    74.77718    75.53451 
   9   6   5     0.79075    64.29939    63.49401 
   9   6   6     0.75617    67.96347    70.34704 
   9   6   7     0.72062   239.90339   239.71829 
   9   6   8     0.68524     1.82912     1.82024 
   9   6   9     0.65082    99.69241   100.03288 
   9   6  10     0.61789    35.85983    35.85066 
   9   6  11     0.58673   242.41074   244.60674 
   9   6  12     0.55748    84.74492    83.93217 
   9   7   1     0.85919   205.74244   203.94124 
   9   7   2     0.84654    37.41189    36.90055 
   9   7   3     0.82664    21.34072    21.75744 
   9   7   4     0.80099    41.19594    39.83438 
   9   7   5     0.77128    41.27234    42.44618 
   9   7   6     0.73909    20.87693    20.76776 
   9   7   7     0.70580   106.69996   105.01424 
   9   7   8     0.67246    60.44617    60.74436 
   9   7   9     0.63984    83.63896    84.92588 
   9   7  10     0.60846     3.03511     3.04012 
   9   7  11     0.57864     4.48322     4.51747 
   9   8   1     0.83075  1349.76806  1357.44634 
   9   8   2     0.81930    15.15548    15.20527 
   9   8   3     0.80122   506.27809   489.64719 
   9   8   4     0.77780   112.35514   115.03614 
   9   8   5     0.75051   365.68475   377.04803 
   9   8   6     0.72076    22.00481    22.00972 
   9   8   7     0.68978   188.01310   187.47659 
   9   8   8     0.65856     0.01053     0.01068 
   9   8   9     0.62783     6.63329     6.61609 
   9   8  10     0.59811    23.48576    23.64406 
   9   8  11     0.56971    79.63899    80.50635 
   9   9   1     0.80170    16.35155    15.85374 
   9   9   2     0.79139     8.67751     8.55112 
   9   9   3     0.77506   110.73492   111.32618 
   9   9   4     0.75380   130.15241   132.89567 
   9   9   5     0.72888   152.52565   153.27906 
   9   9   6     0.70154    63.14036    63.56327 
   9   9   7     0.67287     4.11514     4.13515 
   9   9   8     0.64380     1.28790     1.30605 
   9   9   9     0.61500    24.61881    24.82502 
   9   9  10     0.58699    51.88014    52.27901 
   9   9  11     0.56008   111.22088   112.50601 
   9  10   1     0.77258    19.78947    20.18948 
   9  10   2     0.76334    20.77571    21.03069 
   9  10   3     0.74866    69.47732    72.28436 
   9  10   4     0.72945     9.96206     9.97234 
   9  10   5     0.70679   165.68212   163.48406 
   9  10   6     0.68178    10.95488    10.96920 
   9  10   7     0.65538   258.14667   259.44584 
   9  10   8     0.62842     0.07331     0.07308 
   9  10   9     0.60156   155.36005   155.88597 
   9  10  10     0.57527     8.86120     8.86174 
   9  11   1     0.74382    77.02350    77.11543 
   9  11   2     0.73556    47.46101    47.89457 
   9  11   3     0.72240    49.48648    49.72727 
   9  11   4     0.70509    42.41807    41.87105 
   9  11   5     0.68457    23.57088    23.44314 
   9  11   6     0.66177    29.05998    29.53583 
   9  11   7     0.63754    98.78806    98.84747 
   9  11   8     0.61265    51.25073    51.44940 
   9  11   9     0.58768    66.12705    66.53188 
   9  11  10     0.56309     7.80445     7.92110 
   9  12   1     0.71573   442.74692   440.13954 
   9  12   2     0.70837     3.12821     3.12823 
   9  12   3     0.69658   213.35415   211.35944 
   9  12   4     0.68103     3.01324     3.03372 
   9  12   5     0.66248   140.37353   142.36966 
   9  12   6     0.64175     5.50336     5.53294 
   9  12   7     0.61959    70.07080    70.26066 
   9  12   8     0.59667     2.18434     2.18773 
   9  12   9     0.57353    18.05559    18.27476 
   9  13   1     0.68854     6.27607     6.24438 
   9  13   2     0.68198     6.11772     6.11737 
   9  13   3     0.67144    73.15116    73.56233 
   9  13   4     0.65748    77.95148    78.66965 
   9  13   5     0.64075    86.69353    88.49123 
   9  13   6     0.62193    43.70266    44.32909 
   9  13   7     0.60170     2.66356     2.67388 
   9  13   8     0.58064     0.44307     0.44451 
   9  13   9     0.55925    12.20982    12.25462 
   9  14   1     0.66239    43.54451    44.18065 
   9  14   2     0.65654     0.89199     0.89383 
   9  14   3     0.64713    97.66238    98.73632 
   9  14   4     0.63460     4.63805     4.65410 
   9  14   5     0.61952   169.01962   169.55403 
   9  14   6     0.60246     5.62031     5.67292 
   9  14   7     0.58401   215.10966   215.30425 
   9  14   8     0.56470     0.90449     0.91396 
   9  15   1     0.63738    76.50122    76.55219 
   9  15   2     0.63216    18.05392    18.07289 
   9  15   3     0.62374     4.61648     4.67470 
   9  15   4     0.61250    12.22453    12.27500 
   9  15   5     0.59891    17.71524    17.80346 
   9  15   6     0.58346    10.02868    10.02537 
   9  15   7     0.56665    41.85708    41.72777 
   9  16   1     0.61355   452.14460   452.57642 
   9  16   2     0.60889     1.06668     1.06578 
   9  16   3     0.60135   277.29414   278.18234 
   9  16   4     0.59126    11.91373    11.91626 
   9  16   5     0.57900   124.63694   125.50173 
   9  16   6     0.56501     2.83714     2.86021 
   9  17   1     0.59090    38.86747    38.83352 
   9  17   2     0.58673     2.97190     2.99873 
   9  17   3     0.57998    65.08025    65.43077 
   9  17   4     0.57091    30.52566    30.94693 
   9  17   5     0.55986    16.61434    16.79036 
   9  18   1     0.56942     5.54620     5.60360 
   9  18   2     0.56569     6.29843     6.31143 
   9  18   3     0.55963    41.04695    41.41416 
  10   0   0     0.88557   104.28889   103.40669 
  10   0   1     0.88089     8.08400     8.10304 
  10   0   2     0.86726     1.54572     1.53019 
  10   0   3     0.84590    51.38744    50.78251 
  10   0   4     0.81848   107.53104   108.19959 
  10   0   5     0.78686   133.50034   134.17860 
  10   0   6     0.75277    97.80346    98.61664 
  10   0   7     0.71767     9.15514     9.09529 
  10   0   8     0.68270     7.02343     6.98791 
  10   0   9     0.64865    25.05685    25.23077 
  10   0  10     0.61602   206.86338   209.66667 
  10   0  11     0.58513     5.59746     5.62639 
  10   0  12     0.55611     3.41923     3.39233 
  10   1   0     0.88340     2.08461     2.05848 
  10   1   1     0.87874     0.00954     0.00959 
  10   1   2     0.86522     0.42864     0.42215 
  10   1   3     0.84400     3.62085     3.61332 
  10   1   4     0.81676     0.00864     0.00871 
  10   1   5     0.78533     5.30274     5.30370 
  10   1   6     0.75143     0.01573     0.01605 
  10   1   7     0.71651     0.04783     0.04750 
  10   1   8     0.68170     0.07242     0.07255 
  10   1   9     0.64779     2.34305     2.36255 
  10   1  10     0.61529     0.05861     0.05920 
  10   1  11     0.58450     8.68504     8.69974 
  10   1  12     0.55557     1.63372     1.62253 
  10   2   0     0.87696   744.46444   742.06245 
  10   2   1     0.87241   144.38596   144.89688 
  10   2   2     0.85917    87.56077    86.77656 
  10   2   3     0.83839    80.15121    81.79986 
  10   2   4     0.81167   394.21543   388.05919 
  10   2   5     0.78080     5.91061     5.97904 
  10   2   6     0.74746   698.84181   722.32650 
  10   2   7     0.71307   245.21516   247.97452 
  10   2   8     0.67874     9.32126     9.36197 
  10   2   9     0.64524     5.16041     5.19888 
  10   2  10     0.61310   498.94976   499.89612 
  10   2  11     0.58263    16.81834    16.74345 
  10   2  12     0.55396    19.98867    19.95811 
  10   3   0     0.86655     5.82471     5.76948 
  10   3   1     0.86216    27.36809    27.43061 
  10   3   2     0.84937    11.86166    11.96611 
  10   3   3     0.82927     3.68324     3.76335 
  10   3   4     0.80339    11.16838    10.89213 
  10   3   5     0.77342     0.15588     0.15781 
  10   3   6     0.74098     6.21674     6.21839 
  10   3   7     0.70744    12.77951    12.64624 
  10   3   8     0.67387    15.65562    15.77521 
  10   3   9     0.64106    53.77994    54.75004 
  10   3  10     0.60951     0.19052     0.19089 
  10   3  11     0.57954     0.47875     0.48040 
  10   4   0     0.85257   152.77214   153.88073 
  10   4   1     0.84839     3.98458     3.97291 
  10   4   2     0.83620     3.52322     3.64799 
  10   4   3     0.81700   139.23594   140.56449 
  10   4   4     0.79222   159.52052   157.52948 
  10   4   5     0.76344   292.13219   295.66011 
  10   4   6     0.73218   154.20021   152.85369 
  10   4   7     0.69977     2.19035     2.18727 
  10   4   8     0.66724     5.58026     5.54989 
  10   4   9     0.63534    44.57513    44.71948 
  10   4  10     0.60459   320.14913   322.84976 
  10   4  11     0.57530     8.71129     8.71352 
  10   5   0     0.83555    24.86889    25.66100 
  10   5   1     0.83162    29.48169    29.91055 
  10   5   2     0.82013     7.82459     7.82043 
  10   5   3     0.80199     7.30080     7.09309 
  10   5   4     0.77851    11.87309    12.18562 
  10   5   5     0.75115     0.67585     0.69223 
  10   5   6     0.72132    46.40206    46.54918 
  10   5   7     0.69027    23.78067    23.67167 
  10   5   8     0.65898     2.69975     2.73838 
  10   5   9     0.62820     8.92775     8.89804 
  10   5  10     0.59843     0.62027     0.62483 
  10   5  11     0.56999    39.83078    40.30381 
  10   6   0     0.81608   425.97074   426.20463 
  10   6   1     0.81241   113.11004   111.75290 
  10   6   2     0.80169    89.05810    86.33756 
  10   6   3     0.78472   126.01047   125.49133 
  10   6   4     0.76268   305.94859   309.43491 
  10   6   5     0.73690    43.77390    44.22439 
  10   6   6     0.70868   521.51431   523.97856 
  10   6   7     0.67917   204.28430   205.78732 
  10   6   8     0.64930    37.94796    38.20502 
  10   6   9     0.61980     0.05041     0.05049 
  10   6  10     0.59115   356.25294   356.15763 
  10   6  11     0.56369     9.88452    10.00682 
  10   7   0     0.79473     1.37028     1.35466 
  10   7   1     0.79134    53.83253    53.05091 
  10   7   2     0.78142   110.80060   112.15984 
  10   7   3     0.76568    30.88013    31.20658 
  10   7   4     0.74517    76.28048    76.95691 
  10   7   5     0.72107     7.12463     7.14004 
  10   7   6     0.69456     1.98765     1.97215 
  10   7   7     0.66671    17.54933    17.43756 
  10   7   8     0.63839    49.27867    49.49961 
  10   7   9     0.61029   113.47176   114.05645 
  10   7  10     0.58288     0.13794     0.13767 
  10   7  11     0.55651     6.57767     6.53113 
  10   8   0     0.77206   268.29458   274.75700 
  10   8   1     0.76895     0.78346     0.80674 
  10   8   2     0.75984   176.80701   181.13027 
  10   8   3     0.74535   135.15493   136.52052 
  10   8   4     0.72639   251.17873   252.17808 
  10   8   5     0.70401   224.13358   222.80468 
  10   8   6     0.67928   167.58813   169.00265 
  10   8   7     0.65316     6.67423     6.69388 
  10   8   8     0.62646     6.60337     6.70030 
  10   8   9     0.59984    23.58029    23.64294 
  10   8  10     0.57376   167.23785   169.35778 
  10   9   0     0.74858    86.13381    89.60530 
  10   9   1     0.74574    51.63395    52.32394 
  10   9   2     0.73742    32.87295    33.01357 
  10   9   3     0.72415    10.50649    10.61264 
  10   9   4     0.70673    25.00391    24.66595 
  10   9   5     0.68607     0.33235     0.32990 
  10   9   6     0.66312    80.04697    80.66214 
  10   9   7     0.63875    39.58851    39.83037 
  10   9   8     0.61372     9.05802     9.07036 
  10   9   9     0.58863    27.69631    27.83190 
  10   9  10     0.56392     0.12714     0.12852 
  10  10   0     0.72471    65.31474    65.83418 
  10  10   1     0.72213    43.69491    43.88555 
  10  10   2     0.71457    18.70077    18.63334 
  10  10   3     0.70248    87.20646    87.21751 
  10  10   4     0.68654   107.70195   106.75436 
  10  10   5     0.66755    55.21138    54.93450 
  10  10   6     0.64635   245.74034   247.82979 
  10  10   7     0.62373    89.42811    90.54811 
  10  10   8     0.60036    81.52238    81.79955 
  10  10   9     0.57681     1.41589     1.42740 
  10  10  10     0.55350   187.76048   189.04439 
  10  11   0     0.70081     3.34695     3.36101 
  10  11   1     0.69848    56.70462    56.33884 
  10  11   2     0.69163    97.82112    97.27988 
  10  11   3     0.68065    10.53008    10.62932 
  10  11   4     0.66612    51.14090    50.91477 
  10  11   5     0.64873     0.77705     0.78240 
  10  11   6     0.62923     7.44295     7.42088 
  10  11   7     0.60830    26.32519    26.41517 
  10  11   8     0.58656    24.24925    24.48416 
  10  11   9     0.56454    80.99113    81.86981 
  10  12   0     0.67717   222.90318   225.69819 
  10  12   1     0.67507     4.32812     4.41125 
  10  12   2     0.66888   317.86599   318.95090 
  10  12   3     0.65893    62.73925    63.64684 
  10  12   4     0.64572   228.30285   229.76482 
  10  12   5     0.62984    88.03451    87.91109 
  10  12   6     0.61195   128.09417   128.46783 
  10  12   7     0.59264    16.67985    16.68161 
  10  12   8     0.57249    40.15941    40.59381 
  10  13   0     0.65400    41.85667    41.81751 
  10  13   1     0.65211    18.49408    18.54862 
  10  13   2     0.64652     6.86945     6.93419 
  10  13   3     0.63753    35.04850    35.06895 
  10  13   4     0.62554     2.88346     2.93619 
  10  13   5     0.61108    15.54235    15.58264 
  10  13   6     0.59469    26.86338    26.82672 
  10  13   7     0.57693     7.86489     7.92404 
  10  13   8     0.55828    17.66387    17.49189 
  10  14   0     0.63147    45.81355    45.90567 
  10  14   1     0.62977    10.52935    10.51071 
  10  14   2     0.62473    93.21171    94.62427 
  10  14   3     0.61660    48.67282    49.24708 
  10  14   4     0.60574   121.78796   122.32147 
  10  14   5     0.59258    48.68775    48.68490 
  10  14   6     0.57760   173.58940   174.11367 
  10  14   7     0.56128    26.42847    26.88395 
  10  15   0     0.60969     0.00016     0.00016 
  10  15   1     0.60815    37.27548    37.46106 
  10  15   2     0.60362    21.99590    22.18787 
  10  15   3     0.59628     1.15572     1.15584 
  10  15   4     0.58643     9.05290     9.14157 
  10  15   5     0.57447     5.27594     5.32004 
  10  15   6     0.56079    10.82509    10.97965 
  10  16   0     0.58873    83.25223    83.64068 
  10  16   1     0.58735     9.51927     9.57943 
  10  16   2     0.58326   192.16285   192.03809 
  10  16   3     0.57663    44.55609    44.93734 
  10  16   4     0.56771   107.87627   108.57149 
  10  16   5     0.55683    48.32205    48.00626 
  10  17   0     0.56863    10.63139    10.72506 
  10  17   1     0.56739     1.62451     1.62696 
  10  17   2     0.56370     0.71044     0.71919 
  10  17   3     0.55770    33.58694    33.21394 
  11   0   1     0.80154   271.20795   262.66738 
  11   0   2     0.79124    22.48666    22.16634 
  11   0   3     0.77491   562.69974   565.38021 
  11   0   4     0.75367    37.28152    37.97313 
  11   0   5     0.72876    31.99634    32.17803 
  11   0   6     0.70143    42.55754    42.85035 
  11   0   7     0.67278    99.58531   100.06325 
  11   0   8     0.64371    18.33551    18.58748 
  11   0   9     0.61493   148.83115   150.01367 
  11   0  10     0.58692     0.00079     0.00080 
  11   0  11     0.56002    10.74549    10.86767 
  11   1   1     0.79993    79.00788    76.67248 
  11   1   2     0.78968    40.12441    39.78367 
  11   1   3     0.77345     4.08192     4.13110 
  11   1   4     0.75233    39.45276    39.80461 
  11   1   5     0.72755     0.45519     0.45872 
  11   1   6     0.70035    32.09533    32.12363 
  11   1   7     0.67182    31.20725    31.38399 
  11   1   8     0.64288    14.18437    14.23634 
  11   1   9     0.61420    29.47945    29.60417 
  11   1  10     0.58629     0.42382     0.42792 
  11   1  11     0.55947     3.88586     3.91316 
  11   2   1     0.79514     7.06673     6.94838 
  11   2   2     0.78508     7.07866     7.06677 
  11   2   3     0.76913   408.24843   420.45811 
  11   2   4     0.74834    78.54272    81.65196 
  11   2   5     0.72394     0.35821     0.36189 
  11   2   6     0.69713    86.46909    85.61169 
  11   2   7     0.66898   135.26237   135.90389 
  11   2   8     0.64039    41.16874    42.00150 
  11   2   9     0.61203   430.25793   431.61791 
  11   2  10     0.58440     1.52273     1.52505 
  11   2  11     0.55783     2.76604     2.73403 
  11   3   1     0.78735    21.88316    21.98501 
  11   3   2     0.77758     9.07597     9.27640 
  11   3   3     0.76207     6.51605     6.58799 
  11   3   4     0.74184   151.50019   150.99020 
  11   3   5     0.71805    28.70576    28.54391 
  11   3   6     0.69186    14.26337    14.19330 
  11   3   7     0.66432     8.14491     8.08819 
  11   3   8     0.63630     5.74895     5.78773 
  11   3   9     0.60845    53.73271    53.82642 
  11   3  10     0.58129    15.24167    15.12916 
  11   3  11     0.55512    13.66002    13.58294 
  11   4   1     0.77682   304.00458   309.04287 
  11   4   2     0.76743    43.06274    44.15397 
  11   4   3     0.75251   731.54712   737.50293 
  11   4   4     0.73301    35.63991    35.15115 
  11   4   5     0.71004    43.52999    44.14792 
  11   4   6     0.68468    75.06491    74.67247 
  11   4   7     0.65796   151.43086   153.42283 
  11   4   8     0.63070    19.92042    19.96295 
  11   4   9     0.60356   240.24178   242.45826 
  11   4  10     0.57701     0.03132     0.03154 
  11   5   1     0.76389     8.33324     8.42135 
  11   5   2     0.75495   125.68069   130.50276 
  11   5   3     0.74073    34.79542    34.80578 
  11   5   4     0.72211    17.35639    17.43155 
  11   5   5     0.70012     0.04425     0.04423 
  11   5   6     0.67578    99.25729   101.76714 
  11   5   7     0.65004   114.15828   114.82795 
  11   5   8     0.62372    36.26273    36.71473 
  11   5   9     0.59743    22.21974    22.29377 
  11   5  10     0.57165    17.34866    17.57720 
  11   6   1     0.74892    81.32747    84.62683 
  11   6   2     0.74049     0.82308     0.82305 
  11   6   3     0.72706   550.66961   553.64815 
  11   6   4     0.70943    52.05813    52.69889 
  11   6   5     0.68854    44.73243    44.50667 
  11   6   6     0.66535    30.51235    30.45011 
  11   6   7     0.64075   175.08384   178.71437 
  11   6   8     0.61549    23.20327    23.46526 
  11   6   9     0.59019   344.72468   345.09973 
  11   6  10     0.56529     1.87372     1.88301 
  11   7   1     0.73232     2.04625     2.02676 
  11   7   2     0.72443     1.73031     1.74633 
  11   7   3     0.71184     0.31612     0.32030 
  11   7   4     0.69527   262.16714   258.87631 
  11   7   5     0.67557   107.70818   110.35469 
  11   7   6     0.65363    10.36373    10.36740 
  11   7   7     0.63026     2.77434     2.77728 
  11   7   8     0.60617     1.82303     1.82985 
  11   7   9     0.58196    64.97045    64.29669 
  11   7  10     0.55805    40.29331    39.83868 
  11   8   1     0.71447    84.22410    83.97294 
  11   8   2     0.70714    13.24633    13.08848 
  11   8   3     0.69542   247.46543   244.25709 
  11   8   4     0.67994    11.94973    12.09799 
  11   8   5     0.66148    27.72071    28.19776 
  11   8   6     0.64084    20.76594    21.18415 
  11   8   7     0.61877    79.17452    79.48318 
  11   8   8     0.59593     5.70259     5.69441 
  11   8   9     0.57288   132.67746   133.92865 
  11   9   1     0.69573     7.62619     7.53178 
  11   9   2     0.68896   125.97441   125.59925 
  11   9   3     0.67811    34.12667    34.36958 
  11   9   4     0.66373     2.08550     2.07767 
  11   9   5     0.64653     3.60012     3.63422 
  11   9   6     0.62722    96.29951    96.66566 
  11   9   7     0.60648   109.30929   109.86929 
  11   9   8     0.58493    31.77897    31.89172 
  11   9   9     0.56308    10.81094    10.97251 
  11  10   1     0.67645   163.88491   167.08793 
  11  10   2     0.67022     1.43859     1.45064 
  11  10   3     0.66021   365.10335   370.12591 
  11  10   4     0.64692     2.15392     2.17775 
  11  10   5     0.63097   126.87633   127.12285 
  11  10   6     0.61298    12.53832    12.57035 
  11  10   7     0.59358   170.72175   171.19670 
  11  10   8     0.57333     1.24733     1.26125 
  11  11   1     0.65689     8.56716     8.59348 
  11  11   2     0.65118     1.03913     1.04191 
  11  11   3     0.64199    23.98209    24.02564 
  11  11   4     0.62975   154.69893   154.41680 
  11  11   5     0.61500    48.42868    48.83409 
  11  11   6     0.59831     0.76003     0.76553 
  11  11   7     0.58023     0.17411     0.17524 
  11  11   8     0.56128     0.34434     0.35026 
  11  12   1     0.63730   205.45653   205.63184 
  11  12   2     0.63208     0.07013     0.07022 
  11  12   3     0.62367   212.42531   215.01859 
  11  12   4     0.61243     8.18382     8.21756 
  11  12   5     0.59884    89.54100    90.02691 
  11  12   6     0.58340     0.65788     0.65761 
  11  12   7     0.56660    66.02069    65.84877 
  11  13   1     0.61788    64.76588    64.74966 
  11  13   2     0.61312    60.35445    60.46436 
  11  13   3     0.60543     0.06880     0.06924 
  11  13   4     0.59514     0.11291     0.11257 
  11  13   5     0.58264    15.04958    14.98453 
  11  13   6     0.56839    45.68150    46.08687 
  11  14   1     0.59877    45.00271    45.26713 
  11  14   2     0.59444     1.18801     1.18763 
  11  14   3     0.58742    84.38363    84.90995 
  11  14   4     0.57801     4.85178     4.86252 
  11  14   5     0.56654   104.23298   104.01595 
  11  14   6     0.55341     4.45292     4.48795 
  11  15   1     0.58011    51.51787    51.83558 
  11  15   2     0.57616     0.25759     0.25945 
  11  15   3     0.56977    46.33838    46.85004 
  11  15   4     0.56116    72.08552    73.28467 
  11  16   1     0.56196   282.16319   287.71941 
  11  16   2     0.55838     2.30710     2.28673 
  12   0   0     0.73798    19.87994    19.84564 
  12   0   1     0.73526   146.88923   147.73954 
  12   0   2     0.72728   144.62920   145.56973 
  12   0   3     0.71454     7.98793     7.96036 
  12   0   4     0.69779    19.23174    19.06111 
  12   0   5     0.67788     1.20515     1.21576 
  12   0   6     0.65571    40.15923    40.34842 
  12   0   7     0.63213   188.35490   188.56896 
  12   0   8     0.60784    51.37163    51.78298 
  12   0   9     0.58343    36.87369    36.86016 
  12   0  10     0.55935     0.98941     0.99473 
  12   1   0     0.73672    17.82550    18.03920 
  12   1   1     0.73401     0.15608     0.15475 
  12   1   2     0.72607    80.25078    80.57022 
  12   1   3     0.71340     5.44711     5.49141 
  12   1   4     0.69672    24.37888    24.14628 
  12   1   5     0.67690     0.39789     0.40362 
  12   1   6     0.65483     0.00156     0.00157 
  12   1   7     0.63134     1.03418     1.03616 
  12   1   8     0.60713     2.50320     2.52659 
  12   1   9     0.58281     3.75661     3.74666 
  12   1  10     0.55880     7.58353     7.55415 
  12   2   0     0.73297    50.40169    49.71591 
  12   2   1     0.73031    59.91817    59.56227 
  12   2   2     0.72249   263.16344   264.53325 
  12   2   3     0.71000   168.08942   170.47011 
  12   2   4     0.69355    98.48799    97.95242 
  12   2   5     0.67399   207.89613   209.62683 
  12   2   6     0.65220   323.32553   324.31018 
  12   2   7     0.62897    38.31290    38.20180 
  12   2   8     0.60503   287.32836   289.76768 
  12   2   9     0.58095   186.51631   186.06966 
  12   2  10     0.55716     7.39263     7.33934 
  12   3   0     0.72686    93.93025    94.37021 
  12   3   1     0.72426     5.06678     5.11637 
  12   3   2     0.71663    44.36589    44.04955 
  12   3   3     0.70444     0.82453     0.81744 
  12   3   4     0.68837    33.73945    33.53467 
  12   3   5     0.66923     7.54033     7.59580 
  12   3   6     0.64788    24.17622    24.36946 
  12   3   7     0.62510     2.41826     2.45652 
  12   3   8     0.60158    14.70356    14.75435 
  12   3   9     0.57789     0.10514     0.10536 
  12   3  10     0.55446     0.62898     0.62377 
  12   4   0     0.71855   147.87265   147.11376 
  12   4   1     0.71604   226.39151   225.05430 
  12   4   2     0.70867   518.10399   520.47284 
  12   4   3     0.69687    24.41843    24.18029 
  12   4   4     0.68130   127.25262   127.86525 
  12   4   5     0.66273     8.60655     8.71622 
  12   4   6     0.64197   123.97772   124.23103 
  12   4   7     0.61979   309.21480   309.72631 
  12   4   8     0.59685   111.33740   111.56121 
  12   4   9     0.57369    43.85013    44.40256 
  12   5   0     0.70827    11.14192    11.12653 
  12   5   1     0.70587     0.73678     0.72511 
  12   5   2     0.69880   229.80315   228.72358 
  12   5   3     0.68748    18.78015    18.60344 
  12   5   4     0.67252    50.76822    51.01501 
  12   5   5     0.65464     0.02155     0.02158 
  12   5   6     0.63461     7.26901     7.29371 
  12   5   7     0.61316     0.97315     0.97473 
  12   5   8     0.59092    40.35772    40.32367 
  12   5   9     0.56842    14.72768    14.85820 
  12   6   0     0.69630     0.34224     0.33896 
  12   6   1     0.69401    20.31460    20.18622 
  12   6   2     0.68729    39.19419    38.82228 
  12   6   3     0.67651   125.39138   127.73314 
  12   6   4     0.66224    25.82793    26.21537 
  12   6   5     0.64515   160.93566   162.19833 
  12   6   6     0.62595   181.73305   185.19768 
  12   6   7     0.60534     6.67743     6.72390 
  12   6   8     0.58391   204.02318   204.15274 
  12   6   9     0.56217   103.10589   105.07591 
  12   7   0     0.68289   160.57154   159.58364 
  12   7   1     0.68074     8.07800     8.14931 
  12   7   2     0.67439    20.93043    21.16207 
  12   7   3     0.66420     0.71440     0.70930 
  12   7   4     0.65068    29.68391    29.79865 
  12   7   5     0.63444    10.25768    10.30014 
  12   7   6     0.61616    50.78851    51.48874 
  12   7   7     0.59647     1.49744     1.49878 
  12   7   8     0.57594    61.31986    61.67293 
  12   7   9     0.55504     4.38728     4.36129 
  12   8   0     0.66835   252.85657   252.24356 
  12   8   1     0.66633    90.30683    89.79961 
  12   8   2     0.66037   578.60499   587.05724 
  12   8   3     0.65079    27.58706    27.68373 
  12   8   4     0.63806   219.40520   219.95250 
  12   8   5     0.62273    17.09636    17.30561 
  12   8   6     0.60542   138.05198   138.94349 
  12   8   7     0.58670   143.44246   144.75620 
  12   8   8     0.56713    92.79939    92.55917 
  12   9   0     0.65294     0.04955     0.04972 
  12   9   1     0.65105     4.97548     4.98974 
  12   9   2     0.64550   151.90391   152.91111 
  12   9   3     0.63654     6.11876     6.15196 
  12   9   4     0.62461    17.86194    18.13247 
  12   9   5     0.61021     6.87496     6.90944 
  12   9   6     0.59389    33.41028    33.46374 
  12   9   7     0.57620     0.44749     0.45079 
  12   9   8     0.55762    38.99720    38.58116 
  12  10   0     0.63692    10.87364    10.90151 
  12  10   1     0.63517     0.58590     0.58749 
  12  10   2     0.63000    50.99160    50.97094 
  12  10   3     0.62167    56.54664    57.41374 
  12  10   4     0.61054    65.65109    65.96050 
  12  10   5     0.59707    76.54688    76.73405 
  12  10   6     0.58176   157.08079   155.47851 
  12  10   7     0.56510     0.97758     0.98454 
  12  11   0     0.62051    71.65940    71.95479 
  12  11   1     0.61889     2.53030     2.54162 
  12  11   2     0.61411     0.55346     0.55549 
  12  11   3     0.60639    10.04215    10.08766 
  12  11   4     0.59604     2.03373     2.03182 
  12  11   5     0.58349     0.91378     0.91352 
  12  11   6     0.56918    22.80922    23.03243 
  12  11   7     0.55355     0.02540     0.02556 
  12  12   0     0.60392   120.62344   121.48492 
  12  12   1     0.60243    18.69629    18.86603 
  12  12   2     0.59802   222.60412   224.01408 
  12  12   3     0.59088    30.24782    30.22047 
  12  12   4     0.58129   118.42432   117.53918 
  12  12   5     0.56963    26.09254    26.37276 
  12  12   6     0.55629    67.41599    66.90581 
  12  13   0     0.58732     3.93599     3.96099 
  12  13   1     0.58594     5.26405     5.31057 
  12  13   2     0.58188    51.61813    51.08006 
  12  13   3     0.57530     0.18193     0.18197 
  12  13   4     0.56644     2.79927     2.79612 
  12  13   5     0.55564    11.34635    11.26561 
  12  14   0     0.57084    42.10116    42.68482 
  12  14   1     0.56958     5.32406     5.38064 
  12  14   2     0.56584    88.56166    88.71545 
  12  14   3     0.55978    34.01700    34.36246 
  12  15   0     0.55459    35.64517    35.35842 
  12  15   1     0.55344     0.72443     0.72989 
  13   0   1     0.67907   170.63534   171.72866 
  13   0   2     0.67277     4.07222     4.09177 
  13   0   3     0.66265     0.17484     0.17720 
  13   0   4     0.64922     6.66638     6.71147 
  13   0   5     0.63309   297.46266   298.74596 
  13   0   6     0.61493    10.91817    11.00458 
  13   0   7     0.59535    10.44474    10.41114 
  13   0   8     0.57492    32.18975    32.24992 
  13   0   9     0.55414     9.96650     9.91753 
  13   1   1     0.67809     1.77407     1.78697 
  13   1   2     0.67181    15.46385    15.55151 
  13   1   3     0.66174    10.33672    10.50703 
  13   1   4     0.64836    54.08865    54.47301 
  13   1   5     0.63230     9.15805     9.16470 
  13   1   6     0.61420     9.33358     9.37277 
  13   1   7     0.59468    11.54476    11.52934 
  13   1   8     0.57433     3.48267     3.51786 
  13   1   9     0.55361    19.86746    19.97665 
  13   2   1     0.67516   352.69314   359.94713 
  13   2   2     0.66897     7.94154     7.97840 
  13   2   3     0.65902     6.53394     6.62671 
  13   2   4     0.64580     0.05140     0.05174 
  13   2   5     0.62993   578.03224   577.50990 
  13   2   6     0.61202     3.03674     3.04628 
  13   2   7     0.59271    30.14823    30.15645 
  13   2   8     0.57255    55.92428    56.51145 
  13   3   1     0.67038     3.56626     3.59385 
  13   3   2     0.66431    55.57950    55.19108 
  13   3   3     0.65456     3.78344     3.78614 
  13   3   4     0.64161     2.58979     2.61076 
  13   3   5     0.62603     6.54923     6.67273 
  13   3   6     0.60845    49.09805    49.18673 
  13   3   7     0.58946    31.67493    31.77207 
  13   3   8     0.56962     0.69982     0.70732 
  13   4   1     0.66384   163.63614   162.82135 
  13   4   2     0.65795     4.49996     4.55898 
  13   4   3     0.64848     1.85061     1.86364 
  13   4   4     0.63587    12.77578    12.85439 
  13   4   5     0.62070   390.73643   393.27280 
  13   4   6     0.60355    17.92598    18.09222 
  13   4   7     0.58501    17.33144    17.40269 
  13   4   8     0.56559    44.34073    44.45074 
  13   5   1     0.65571     0.17944     0.18028 
  13   5   2     0.65004     0.02587     0.02602 
  13   5   3     0.64089     7.97340     8.13022 
  13   5   4     0.62872   128.61768   128.24215 
  13   5   5     0.61404     5.21046     5.22711 
  13   5   6     0.59742     1.10854     1.11221 
  13   5   7     0.57942     0.21483     0.21565 
  13   5   8     0.56054     4.34402     4.40062 
  13   6   1     0.64617   449.16843   452.55172 
  13   6   2     0.64074     8.35394     8.52721 
  13   6   3     0.63198    77.81013    77.93145 
  13   6   4     0.62030     1.53295     1.53615 
  13   6   5     0.60619   498.89168   500.77878 
  13   6   6     0.59018     0.08581     0.08591 
  13   6   7     0.57281    68.28385    68.93571 
  13   6   8     0.55455    31.71626    31.45846 
  13   7   1     0.63542     1.46132     1.46644 
  13   7   2     0.63025    68.80271    68.87309 
  13   7   3     0.62191     3.54045     3.59168 
  13   7   4     0.61076     9.97852    10.01585 
  13   7   5     0.59728     0.11376     0.11408 
  13   7   6     0.58195    64.93664    64.26220 
  13   7   7     0.56527    31.38808    31.55004 
  13   8   1     0.62365   129.23364   130.80080 
  13   8   2     0.61876     0.00036     0.00036 
  13   8   3     0.61086    10.33551    10.37002 
  13   8   4     0.60029    16.67637    16.73313 
  13   8   5     0.58748   218.78151   220.13429 
  13   8   6     0.57287    15.71028    15.85856 
  13   8   7     0.55694    34.99433    34.76507 
  13   9   1     0.61108    29.64654    29.72329 
  13   9   2     0.60647     4.84734     4.87199 
  13   9   3     0.59903     0.86849     0.87208 
  13   9   4     0.58905   123.73238   124.18497 
  13   9   5     0.57693     0.00348     0.00351 
  13   9   6     0.56308    10.60887    10.76740 
  13  10   1     0.59788   166.89265   167.83204 
  13  10   2     0.59357     8.52811     8.55197 
  13  10   3     0.58659    65.01551    65.64399 
  13  10   4     0.57721     7.58768     7.63089 
  13  10   5     0.56579   205.96551   206.34819 
  13  11   1     0.58425    22.99971    23.03021 
  13  11   2     0.58022    52.43102    52.77104 
  13  11   3     0.57369    22.11805    22.39685 
  13  11   4     0.56491    14.15457    14.28244 
  13  11   5     0.55419     0.75705     0.75263 
  13  12   1     0.57034   198.76772   201.41769 
  13  12   2     0.56659     2.03654     2.03132 
  13  12   3     0.56051   114.37419   115.84739 
  13  13   1     0.55629    36.06020    35.78728 
  14   0   0     0.63255    47.35337    47.39149 
  14   0   1     0.63084    28.30589    28.36436 
  14   0   2     0.62578   214.68747   218.80713 
  14   0   3     0.61761    54.15471    54.18254 
  14   0   4     0.60669   158.38581   159.41954 
  14   0   5     0.59347    21.96126    22.02913 
  14   0   6     0.57843     1.49523     1.50424 
  14   0   7     0.56204    10.01056    10.20832 
  14   1   0     0.63176    81.65705    81.81963 
  14   1   1     0.63005     0.00593     0.00593 
  14   1   2     0.62501    83.58461    84.88565 
  14   1   3     0.61687     0.37329     0.37655 
  14   1   4     0.60599    28.13581    28.23952 
  14   1   5     0.59281     0.66346     0.66404 
  14   1   6     0.57782     0.64076     0.64212 
  14   1   7     0.56148     0.41930     0.42692 
  14   2   0     0.62939     0.81282     0.81045 
  14   2   1     0.62770   141.87651   141.64306 
  14   2   2     0.62272    67.08012    67.90255 
  14   2   3     0.61467     0.34566     0.34795 
  14   2   4     0.60390   150.17357   151.25740 
  14   2   5     0.59086    10.56175    10.55191 
  14   2   6     0.57601     8.27388     8.32544 
  14   2   7     0.55982   154.43606   156.04786 
  14   3   0     0.62551    23.75209    24.18199 
  14   3   1     0.62385     3.41058     3.45549 
  14   3   2     0.61895   129.56299   130.15532 
  14   3   3     0.61105     0.23643     0.23706 
  14   3   4     0.60047    10.99082    11.02661 
  14   3   5     0.58764     4.71202     4.74086 
  14   3   6     0.57303     4.06027     4.09961 
  14   3   7     0.55708     5.98524     5.94415 
  14   4   0     0.62019   119.56663   119.74874 
  14   4   1     0.61857    37.72292    37.82806 
  14   4   2     0.61380   443.38808   444.18175 
  14   4   3     0.60609    82.19283    82.49203 
  14   4   4     0.59576   314.74035   314.05518 
  14   4   5     0.58322    37.03210    37.00599 
  14   4   6     0.56893    11.01510    11.11576 
  14   5   0     0.61355    82.55498    82.63383 
  14   5   1     0.61198     4.52403     4.53765 
  14   5   2     0.60736     7.08465     7.15500 
  14   5   3     0.59988     0.52015     0.52159 
  14   5   4     0.58986    12.65292    12.68504 
  14   5   5     0.57769     3.81143     3.82106 
  14   5   6     0.56379     1.10913     1.12201 
  14   6   0     0.60571     0.14780     0.14847 
  14   6   1     0.60420    72.34658    72.86837 
  14   6   2     0.59975    58.55382    58.69516 
  14   6   3     0.59255     0.12298     0.12296 
  14   6   4     0.58289   122.73790   122.49721 
  14   6   5     0.57113     9.17179     9.29590 
  14   6   6     0.55769    23.61198    23.35165 
  14   7   0     0.59682     0.03530     0.03537 
  14   7   1     0.59538     5.90884     5.89019 
  14   7   2     0.59112    84.35143    84.31893 
  14   7   3     0.58422     0.25949     0.25982 
  14   7   4     0.57496     0.03515     0.03520 
  14   7   5     0.56367    22.20229    22.48109 
  14   8   0     0.58704    84.95305    85.58005 
  14   8   1     0.58567     8.44591     8.51644 
  14   8   2     0.58162   260.19860   257.65230 
  14   8   3     0.57504    37.91031    37.93872 
  14   8   4     0.56620   182.42670   182.56654 
  14   8   5     0.55540    23.57952    23.43469 
  14   9   0     0.57652    58.01144    58.50148 
  14   9   1     0.57522     9.22069     9.21933 
  14   9   2     0.57138     1.16153     1.17694 
  14   9   3     0.56514     1.88061     1.89317 
  14   9   4     0.55674     4.19701     4.16917 
  14  10   0     0.56540    21.99350    22.07779 
  14  10   1     0.56417    18.59076    18.78511 
  14  10   2     0.56055   103.10453   104.44941 
  14  10   3     0.55465     4.52073     4.48484 
  14  11   0     0.55383     0.06437     0.06446 
  15   0   1     0.58899    11.77662    11.82196 
  15   0   2     0.58486    42.73689    42.87083 
  15   0   3     0.57818    82.64259    82.92649 
  15   0   4     0.56919    11.43477    11.54710 
  15   0   5     0.55823     0.20837     0.20624 
  15   1   1     0.58834     0.85992     0.86456 
  15   1   2     0.58423     4.05050     4.05573 
  15   1   3     0.57757     0.06157     0.06176 
  15   1   4     0.56861     0.37992     0.38327 
  15   1   5     0.55768     2.09335     2.07033 
  15   2   1     0.58643   189.60156   191.45872 
  15   2   2     0.58236    19.38504    19.23454 
  15   2   3     0.57576   385.90554   387.50796 
  15   2   4     0.56688   149.07472   148.45793 
  15   2   5     0.55605    21.75996    21.58724 
  15   3   1     0.58329     4.36370     4.36110 
  15   3   2     0.57928     0.00297     0.00298 
  15   3   3     0.57278     4.40935     4.45162 
  15   3   4     0.56404    10.83344    10.94661 
  15   3   5     0.55337     4.41481     4.45153 
  15   4   1     0.57897    40.53153    40.82434 
  15   4   2     0.57505    72.23362    72.28453 
  15   4   3     0.56869   164.01254   165.46223 
  15   4   4     0.56013     9.40079     9.51092 
  15   5   1     0.57355     1.07949     1.09271 
  15   5   2     0.56974     8.34957     8.44097 
  15   5   3     0.56356    34.44609    34.90636 
  15   5   4     0.55522     6.53611     6.49857 
  15   6   1     0.56714   119.50828   119.20627 
  15   6   2     0.56345     3.82229     3.87608 
  15   6   3     0.55746   232.10884   229.90988 
  15   7   1     0.55982    33.31682    33.66467 
  15   7   2     0.55628     1.59354     1.58142 
  16   0   0     0.55348   154.85505   155.94983 
loop_
_pd_proc_point_id
_pd_meas_time_of_flight
_pd_proc_intensity_total
_pd_calc_intensity_total
_pd_proc_ls_weight
         1 12497.16513    62.36324    63.07704     2.56226
         2 12507.16286    63.27635    64.99247     2.56753
         3 12517.16859    63.00770    62.80708     2.62231
         4 12527.18232    62.50715    61.10930     2.60369
         5 12537.20407    62.13854    62.08262     2.64734
         6 12547.23383    61.74753    61.66109     2.65489
         7 12557.27162    61.28671    60.51400     2.66790
         8 12567.31744    61.08665    60.62865     2.64775
         9 12577.37129    61.05062    60.50406     2.64472
        10 12587.43319    61.36573    61.59859     2.63598
        11 12597.50314    61.71312    60.81917     2.63364
        12 12607.58114    61.44431    60.21574     2.66148
        13 12617.66720    60.89653    60.26066     2.63705
        14 12627.76134    60.82732    59.82900     2.62669
        15 12637.86355    61.52998    62.09876     2.63550
        16 12647.97384    62.08741    62.74505     2.60565
        17 12658.09222    61.81685    62.62608     2.60728
        18 12668.21869    61.57629    61.96714     2.61263
        19 12678.35326    61.61306    62.97507     2.60608
        20 12688.49595    61.48632    62.10628     2.60343
        21 12698.64674    61.26992    63.52429     2.66975
        22 12708.80566    61.06260    61.74549     2.67171
        23 12718.97271    61.56574    62.25831     2.65749
        24 12729.14788    61.52253    63.28588     2.62479
        25 12739.33120    60.81599    60.93037     2.69169
        26 12749.52267    60.47708    61.11854     2.69241
        27 12759.72228    60.22520    61.50438     2.68320
        28 12769.93006    60.14964    60.64938     2.69221
        29 12780.14601    60.69599    60.31702     2.66233
        30 12790.37012    61.39806    62.09999     2.69347
        31 12800.60242    62.07444    62.23615     2.66612
        32 12810.84290    62.27625    60.35261     2.69427
        33 12821.09158    61.69990    62.33508     2.64447
        34 12831.34845    61.19373    61.69801     2.68182
        35 12841.61353    61.16236    61.89749     2.69247
        36 12851.88682    61.00341    61.17932     2.73634
        37 12862.16833    60.69999    61.60237     2.67980
        38 12872.45806    60.77073    61.02293     2.72358
        39 12882.75603    61.03100    61.95413     2.71989
        40 12893.06223    61.11359    62.05203     2.74450
        41 12903.37668    60.55054    61.45209     2.72942
        42 12913.69939    60.04864    60.67198     2.73525
        43 12924.03034    60.24162    61.37348     2.73805
        44 12934.36957    60.93893    61.80416     2.72712
        45 12944.71706    61.32343    61.20992     2.66695
        46 12955.07284    61.26707    62.24835     2.70525
        47 12965.43690    61.25778    62.11056     2.72127
        48 12975.80925    61.52740    62.91637     2.72892
        49 12986.18989    62.07162    62.57653     2.69414
        50 12996.57885    62.76799    61.49908     2.71317
        51 13006.97611    63.09250    63.71150     2.68129
        52 13017.38169    62.34442    62.43045     2.72262
        53 13027.79559    61.74819    62.88793     2.70038
        54 13038.21783    61.73934    62.09777     2.73391
        55 13048.64841    61.77710    62.42092     2.71310
        56 13059.08732    61.88384    60.84205     2.74112
        57 13069.53459    61.88009    62.65415     2.71210
        58 13079.99022    61.81129    63.05543     2.73958
        59 13090.45421    61.79798    61.52974     2.75691
        60 13100.92658    62.01285    61.68105     2.73517
        61 13111.40732    62.06938    63.73610     2.72241
        62 13121.89644    62.72136    63.18966     2.69894
        63 13132.39396    64.55870    63.60827     2.69609
        64 13142.89988    65.02629    64.74540     2.69069
        65 13153.41420    63.78440    61.86999     2.69911
        66 13163.93693    63.36667    63.48180     2.69299
        67 13174.46808    63.96354    63.99545     2.68571
        68 13185.00765    64.13464    63.85771     2.69594
        69 13195.55566    63.48861    63.70818     2.71696
        70 13206.11210    62.48653    62.51429     2.72225
        71 13216.67699    62.09221    61.63394     2.73453
        72 13227.25033    62.19107    63.38630     2.74788
        73 13237.83213    62.73837    62.62897     2.71406
        74 13248.42240    64.15464    65.40262     2.68973
        75 13259.02114    65.07000    65.78240     2.64299
        76 13269.62835    65.12543    65.17355     2.64121
        77 13280.24406    64.52721    65.28812     2.68480
        78 13290.86825    63.57798    63.66034     2.69949
        79 13301.50095    62.94346    63.74643     2.70608
        80 13312.14215    62.69212    62.37060     2.74997
        81 13322.79186    62.81874    63.51915     2.69333
        82 13333.45010    63.40914    63.43677     2.73597
        83 13344.11686    63.79645    63.78995     2.70687
        84 13354.79215    63.82082    63.29827     2.76444
        85 13365.47598    63.20613    63.47915     2.72754
        86 13376.16836    63.40218    64.09730     2.70737
        87 13386.86930    64.67247    63.73801     2.69031
        88 13397.57879    64.97895    65.33939     2.66669
        89 13408.29686    64.33210    64.90172     2.65741
        90 13419.02349    63.34479    63.25963     2.68300
        91 13429.75871    62.43649    62.72787     2.70549
        92 13440.50252    62.39926    62.24392     2.72501
        93 13451.25492    63.59109    63.08667     2.74030
        94 13462.01593    64.43683    64.22644     2.69352
        95 13472.78554    63.93198    63.81718     2.71190
        96 13483.56377    63.59587    63.86225     2.72422
        97 13494.35062    63.66137    63.64965     2.74922
        98 13505.14610    64.22213    64.22312     2.71402
        99 13515.95022    64.40469    65.17913     2.74385
       100 13526.76298    64.19420    65.03425     2.70095
       101 13537.58439    64.22088    64.35049     2.73284
       102 13548.41445    64.31412    63.88144     2.73222
       103 13559.25318    64.64924    65.52566     2.71040
       104 13570.10059    64.60235    64.25724     2.73652
       105 13580.95667    64.28619    64.95425     2.74213
       106 13591.82143    63.93233    63.53914     2.74270
       107 13602.69489    63.35233    63.79134     2.76049
       108 13613.57705    63.42874    63.39603     2.77701
       109 13624.46791    63.72815    65.76085     2.72545
       110 13635.36748    64.59164    65.01943     2.73680
       111 13646.27578    65.45884    65.60883     2.72950
       112 13657.19280    65.92602    66.38332     2.71644
       113 13668.11855    66.53505    67.54469     2.68805
       114 13679.05305    66.74421    67.42624     2.70826
       115 13689.99629    67.71694    67.56203     2.70650
       116 13700.94829    68.92387    68.93014     2.63984
       117 13711.90904    67.88192    68.25657     2.69596
       118 13722.87857    65.64447    66.81587     2.68224
       119 13733.85687    64.76954    65.50117     2.72422
       120 13744.84396    64.66982    65.49840     2.76149
       121 13755.83983    64.04547    62.85508     2.79384
       122 13766.84451    63.27683    63.72790     2.78059
       123 13777.85798    63.17746    62.80428     2.80868
       124 13788.88027    63.66134    64.78555     2.82297
       125 13799.91137    63.70865    63.67324     2.79205
       126 13810.95130    63.66934    63.91159     2.82120
       127 13822.00006    64.39013    64.18989     2.77873
       128 13833.05766    65.04029    65.38024     2.77564
       129 13844.12411    65.90194    66.63539     2.75527
       130 13855.19941    67.80488    67.66142     2.71441
       131 13866.28357    69.18379    68.72184     2.69484
       132 13877.37659    69.07209    69.57981     2.64983
       133 13888.47850    70.06888    70.26081     2.64136
       134 13899.58928    70.85427    71.39427     2.63846
       135 13910.70895    68.57794    69.41753     2.66470
       136 13921.83752    66.00973    67.07026     2.71688
       137 13932.97499    64.46035    66.15883     2.81401
       138 13944.12137    64.54005    64.61800     2.80864
       139 13955.27666    65.80428    65.73818     2.81585
       140 13966.44089    65.99141    65.52198     2.75378
       141 13977.61404    65.32501    65.40345     2.79504
       142 13988.79613    65.26932    66.19742     2.78219
       143 13999.98717    65.76941    66.02205     2.80820
       144 14011.18716    66.19641    65.54916     2.77831
       145 14022.39611    66.70465    66.56590     2.77586
       146 14033.61402    66.44885    67.02940     2.77938
       147 14044.84091    65.55889    67.83735     2.80132
       148 14056.07679    65.26168    65.23586     2.81062
       149 14067.32165    65.72114    67.19293     2.81335
       150 14078.57551    66.61817    67.17501     2.80948
       151 14089.83837    68.09404    68.32309     2.76417
       152 14101.11024    68.62514    70.07606     2.72225
       153 14112.39113    67.77524    68.84112     2.76190
       154 14123.68104    66.63069    67.15942     2.76704
       155 14134.97998    65.98622    67.31363     2.80482
       156 14146.28797    65.58426    67.77540     2.79566
       157 14157.60500    65.29171    66.22436     2.84923
       158 14168.93108    66.00467    66.91256     2.80362
       159 14180.26623    66.54468    66.13968     2.85269
       160 14191.61044    65.92271    65.45017     2.83457
       161 14202.96373    65.52581    65.40661     2.82837
       162 14214.32610    66.26971    66.16781     2.80330
       163 14225.69756    68.03708    67.33079     2.75770
       164 14237.07812    68.80393    68.72330     2.79211
       165 14248.46778    67.38885    68.11668     2.81214
       166 14259.86655    65.71253    65.21485     2.80645
       167 14271.27445    65.24765    65.83160     2.85179
       168 14282.69147    65.87621    66.16970     2.80809
       169 14294.11762    66.68483    65.69522     2.85360
       170 14305.55291    66.72145    67.42495     2.78873
       171 14316.99736    65.48626    66.08148     2.82693
       172 14328.45095    64.39304    65.07564     2.88191
       173 14339.91372    64.19584    64.17417     2.92571
       174 14351.38565    64.16044    64.30425     2.87712
       175 14362.86675    63.87010    63.41213     2.94143
       176 14374.35705    63.70838    65.42864     2.88494
       177 14385.85653    64.02091    63.90807     2.88097
       178 14397.36522    65.06371    65.36087     2.87196
       179 14408.88311    65.87784    65.19243     2.86673
       180 14420.41022    65.83199    66.22979     2.83414
       181 14431.94655    65.79664    66.20764     2.84478
       182 14443.49210    65.95852    65.82651     2.84141
       183 14455.04690    66.04884    67.00676     2.84016
       184 14466.61093    66.06509    67.24539     2.81238
       185 14478.18422    65.89472    68.18166     2.78728
       186 14489.76677    65.43397    67.25214     2.82158
       187 14501.35858    65.39944    65.54202     2.88635
       188 14512.95967    65.26394    64.59804     2.85953
       189 14524.57004    65.06316    64.28388     2.89070
       190 14536.18969    65.00393    66.10085     2.86219
       191 14547.81865    64.88583    66.10718     2.86212
       192 14559.45690    64.70944    65.85620     2.84588
       193 14571.10447    65.27138    65.93310     2.85501
       194 14582.76135    66.84714    67.22148     2.82350
       195 14594.42756    68.69943    68.82982     2.78715
       196 14606.10310    69.99961    70.31191     2.76272
       197 14617.78798    69.73057    71.05941     2.74266
       198 14629.48221    67.70473    68.63319     2.75287
       199 14641.18580    65.87528    65.94211     2.87527
       200 14652.89875    65.10644    65.95421     2.89822
       201 14664.62107    65.04195    65.06672     2.93633
       202 14676.35276    65.21983    66.05091     2.91774
       203 14688.09385    65.45220    65.77994     2.89394
       204 14699.84432    66.27659    66.73010     2.88483
       205 14711.60420    67.75982    67.77756     2.88093
       206 14723.37348    68.65093    68.75716     2.85290
       207 14735.15218    68.28604    68.53826     2.82918
       208 14746.94030    67.18088    67.14280     2.89318
       209 14758.73785    66.02742    67.10213     2.87473
       210 14770.54484    65.83022    65.24804     2.89956
       211 14782.36128    66.28892    66.19532     2.90849
       212 14794.18717    66.61446    66.09330     2.89406
       213 14806.02252    67.24446    68.33180     2.88877
       214 14817.86734    67.33277    67.46631     2.87624
       215 14829.72163    67.03201    67.63234     2.88272
       216 14841.58541    67.25124    66.06179     2.90005
       217 14853.45868    67.66668    68.64471     2.85382
       218 14865.34144    68.01643    68.65430     2.82388
       219 14877.23372    68.16477    69.56685     2.82679
       220 14889.13550    67.81384    68.93200     2.81569
       221 14901.04681    68.48886    69.42173     2.81262
       222 14912.96765    70.87697    71.18956     2.78490
       223 14924.89802    71.65947    72.90029     2.73911
       224 14936.83794    70.43738    71.81971     2.77114
       225 14948.78741    68.97648    70.62322     2.81320
       226 14960.74644    68.02360    68.52703     2.88586
       227 14972.71504    67.70633    69.43803     2.85741
       228 14984.69321    67.77241    69.49962     2.83727
       229 14996.68097    68.35047    67.31681     2.87535
       230 15008.67831    68.31775    67.25271     2.89665
       231 15020.68525    67.33812    66.95446     2.89065
       232 15032.70180    66.60199    66.47731     2.92074
       233 15044.72796    66.71272    67.37002     2.91637
       234 15056.76374    67.86696    66.71578     2.96225
       235 15068.80916    69.01727    68.59141     2.92799
       236 15080.86420    68.72265    68.51319     2.90228
       237 15092.92889    68.77159    68.25227     2.86705
       238 15105.00324    70.21153    69.11326     2.88045
       239 15117.08724    70.53386    71.20398     2.85269
       240 15129.18091    68.85308    69.84339     2.86830
       241 15141.28425    67.42335    68.20381     2.92849
       242 15153.39728    67.30466    67.85551     2.91431
       243 15165.52000    68.17840    68.10208     2.96204
       244 15177.65242    68.88156    69.77119     2.89493
       245 15189.79454    69.09873    69.18859     2.90933
       246 15201.94637    68.97764    69.41019     2.88244
       247 15214.10793    68.60889    68.61518     2.93322
       248 15226.27922    68.78618    69.35930     2.90142
       249 15238.46024    69.80865    70.00323     2.84568
       250 15250.65101    71.40857    72.04059     2.82304
       251 15262.85153    72.23937    74.45840     2.76961
       252 15275.06181    71.86270    75.01884     2.80163
       253 15287.28186    71.54368    72.58285     2.80260
       254 15299.51169    70.98355    71.66150     2.85290
       255 15311.75129    69.77961    70.96076     2.85273
       256 15324.00070    69.34108    70.25266     2.89067
       257 15336.25990    70.22547    69.19913     2.89657
       258 15348.52890    71.18008    71.61469     2.83422
       259 15360.80773    71.13197    72.96448     2.85056
       260 15373.09637    70.64835    71.28047     2.89501
       261 15385.39485    70.80313    71.90380     2.85490
       262 15397.70317    71.35677    71.51874     2.83393
       263 15410.02133    71.08036    71.32420     2.84769
       264 15422.34935    70.45685    70.36388     2.93577
       265 15434.68723    69.95837    69.18178     2.94371
       266 15447.03498    69.52555    68.71194     2.93571
       267 15459.39260    69.23419    68.94695     2.95290
       268 15471.76012    68.88011    68.28288     2.96610
       269 15484.13753    68.74932    68.78489     2.94263
       270 15496.52484    69.28763    69.01720     2.93830
       271 15508.92206    69.87471    69.04456     2.93530
       272 15521.32919    69.50990    68.98941     2.94173
       273 15533.74626    69.01679    68.15145     2.94119
       274 15546.17325    69.32036    68.40406     2.97329
       275 15558.61019    70.18221    69.81366     2.93500
       276 15571.05708    71.14893    70.98636     2.92504
       277 15583.51393    71.67938    72.26119     2.88167
       278 15595.98074    71.06264    70.02889     2.92897
       279 15608.45752    70.35865    70.65502     2.93204
       280 15620.94429    70.68364    69.54999     2.95610
       281 15633.44104    71.13295    70.96464     2.92574
       282 15645.94780    70.54338    70.41934     2.93540
       283 15658.46455    69.81564    69.48080     2.93611
       284 15670.99133    69.68162    69.66726     2.96220
       285 15683.52812    70.11369    68.91417     2.94438
       286 15696.07494    71.35125    72.44656     2.89402
       287 15708.63180    73.02824    70.97797     2.89779
       288 15721.19871    73.70424    72.10583     2.89755
       289 15733.77567    73.41452    73.90307     2.88621
       290 15746.36269    72.55524    71.04023     2.89304
       291 15758.95978    72.17669    71.75170     2.89407
       292 15771.56694    74.05772    73.17196     2.89304
       293 15784.18420    76.22518    75.33013     2.81699
       294 15796.81154    75.50828    75.59909     2.82228
       295 15809.44899    73.74777    73.57886     2.86421
       296 15822.09655    72.79129    72.37996     2.88433
       297 15834.75423    72.39638    72.18223     2.90200
       298 15847.42203    72.26737    73.88117     2.90201
       299 15860.09997    71.69506    72.24161     2.95037
       300 15872.78805    70.95598    71.13406     2.93188
       301 15885.48628    70.93615    70.11888     2.96182
       302 15898.19467    71.78918    72.50752     2.88443
       303 15910.91323    72.50948    71.55547     2.94082
       304 15923.64196    72.73219    72.65853     2.90700
       305 15936.38087    72.43033    71.15201     2.94991
       306 15949.12998    71.84059    70.28990     2.95635
       307 15961.88928    71.48003    70.30297     2.94410
       308 15974.65879    71.48308    70.57404     2.97856
       309 15987.43852    72.23104    71.08451     2.94309
       310 16000.22847    75.20304    73.76541     2.90103
       311 16013.02865    79.31675    80.05460     2.74504
       312 16025.83907    80.46508    81.28557     2.72955
       313 16038.65975    78.52228    79.85663     2.76287
       314 16051.49067    75.34172    77.17030     2.83688
       315 16064.33187    72.65015    72.72623     2.88214
       316 16077.18333    71.14011    72.13284     2.91824
       317 16090.04508    70.88878    72.15196     2.93430
       318 16102.91711    71.69872    72.39929     2.91439
       319 16115.79945    72.68882    74.83430     2.87557
       320 16128.69209    73.20076    73.22207     2.86974
       321 16141.59504    73.64945    73.39333     2.91566
       322 16154.50832    74.65522    74.35764     2.87214
       323 16167.43192    76.58982    75.46005     2.85172
       324 16180.36587    76.83699    77.22779     2.84363
       325 16193.31016    75.78443    74.84291     2.87639
       326 16206.26481    76.71702    75.86299     2.88919
       327 16219.22982    77.45157    76.99891     2.87675
       328 16232.20521    76.19929    75.77986     2.86388
       329 16245.19097    74.54146    74.50825     2.89662
       330 16258.18712    73.23136    72.57274     2.95717
       331 16271.19367    73.27942    71.91901     2.94248
       332 16284.21063    74.16411    74.48946     2.92089
       333 16297.23800    74.82291    75.01264     2.92872
       334 16310.27579    75.94592    76.57091     2.86800
       335 16323.32401    77.81199    77.56660     2.85426
       336 16336.38267    79.21019    79.79882     2.76970
       337 16349.45177    77.87291    78.78300     2.80025
       338 16362.53133    75.07126    76.13399     2.88024
       339 16375.62136    72.82116    73.92022     2.96566
       340 16388.72186    71.62093    71.46684     2.98336
       341 16401.83283    72.29650    72.73559     2.96180
       342 16414.95430    75.07315    75.52655     2.89651
       343 16428.08626    77.68176    76.98904     2.81694
       344 16441.22873    77.44989    79.05852     2.80295
       345 16454.38172    76.26576    76.78828     2.88613
       346 16467.54522    75.56266    76.53239     2.86797
       347 16480.71926    75.01551    75.14956     2.89405
       348 16493.90383    74.54038    74.94727     2.90587
       349 16507.09896    74.65994    73.70911     2.96513
       350 16520.30463    75.40716    73.98161     2.93024
       351 16533.52088    75.38183    75.49722     2.93773
       352 16546.74769    74.88247    74.91201     2.93859
       353 16559.98509    74.64293    73.03495     2.96287
       354 16573.23308    73.52866    71.81163     2.97519
       355 16586.49167    72.22577    71.10583     3.03729
       356 16599.76086    72.00465    72.02491     3.03205
       357 16613.04067    73.41725    73.00443     2.98808
       358 16626.33110    75.46177    76.70048     2.89004
       359 16639.63217    75.54546    77.33604     2.89890
       360 16652.94387    73.63608    75.13074     2.94520
       361 16666.26623    71.81570    71.97474     3.04031
       362 16679.59924    70.65921    70.38467     3.05798
       363 16692.94292    70.22725    69.42605     3.05876
       364 16706.29727    70.67822    70.10693     3.05857
       365 16719.66231    71.05110    70.83300     3.05213
       366 16733.03804    70.91268    71.01120     3.02762
       367 16746.42447    71.08625    71.23535     3.08520
       368 16759.82161    71.61039    72.29051     3.02623
       369 16773.22947    71.61755    70.22551     3.05013
       370 16786.64805    70.90283    70.31057     3.09134
       371 16800.07737    70.35301    69.78161     3.08033
       372 16813.51743    70.40765    70.88031     3.08998
       373 16826.96825    71.15818    71.34570     3.01514
       374 16840.42982    72.17455    72.43772     3.01275
       375 16853.90217    72.11140    72.95775     2.99977
       376 16867.38529    72.60804    73.47851     2.99937
       377 16880.87920    76.29418    78.32229     2.87274
       378 16894.38390    81.26809    84.54497     2.75076
       379 16907.89941    83.35755    86.56201     2.70657
       380 16921.42573    80.98078    84.60903     2.74759
       381 16934.96287    77.63322    81.64110     2.81803
       382 16948.51084    76.64862    78.91261     2.88275
       383 16962.06965    76.26759    79.28060     2.87807
       384 16975.63930    74.73635    77.36435     2.93294
       385 16989.21981    74.42739    75.51316     2.98429
       386 17002.81119    75.44366    74.82852     2.97942
       387 17016.41344    75.06742    75.61953     2.99175
       388 17030.02657    73.83623    73.48408     3.01938
       389 17043.65059    72.77198    75.38731     2.98286
       390 17057.28551    72.81838    75.70535     2.97933
       391 17070.93134    73.67211    77.46852     2.97678
       392 17084.58808    74.14140    77.27935     2.91105
       393 17098.25575    74.58832    77.21848     2.90909
       394 17111.93436    74.68865    75.96289     2.99404
       395 17125.62391    74.52644    75.41940     2.96968
       396 17139.32440    74.18461    77.58122     2.96060
       397 17153.03586    72.89336    75.10958     3.00186
       398 17166.75829    71.51301    73.47058     3.04669
       399 17180.49170    70.63628    72.48699     3.07223
       400 17194.23609    71.01648    72.14825     3.06068
       401 17207.99148    72.52485    73.93096     3.05318
       402 17221.75788    73.95137    73.98787     3.04127
       403 17235.53528    75.95053    76.44076     2.99094
       404 17249.32371    78.75000    80.96421     2.91103
       405 17263.12317    79.69685    79.84086     2.91465
       406 17276.93367    77.34926    77.93929     2.97092
       407 17290.75521    73.85033    74.42792     3.06982
       408 17304.58782    72.23961    73.14308     3.09897
       409 17318.43149    72.06392    71.94703     3.15005
       410 17332.28623    71.46508    72.64518     3.11474
       411 17346.15206    70.47461    72.66135     3.11116
       412 17360.02898    70.65869    73.64653     3.11713
       413 17373.91701    72.45349    73.73230     3.08711
       414 17387.81614    74.27239    76.71136     2.99676
       415 17401.72639    74.55970    77.42725     3.01620
       416 17415.64778    73.27755    75.53970     3.07126
       417 17429.58029    71.96226    74.34504     3.08411
       418 17443.52396    71.08509    73.00236     3.08648
       419 17457.47878    69.99295    71.89971     3.12240
       420 17471.44476    68.94572    69.99242     3.20257
       421 17485.42192    69.56405    70.86709     3.21480
       422 17499.41025    73.92804    73.09028     3.11312
       423 17513.40978    80.03897    80.02645     2.94012
       424 17527.42051    82.15176    82.68527     2.86439
       425 17541.44245    79.73668    81.13233     2.95086
       426 17555.47560    77.31034    78.04098     2.97102
       427 17569.51998    76.79552    77.96269     3.00530
       428 17583.57560    75.75299    78.30260     2.99428
       429 17597.64246    74.65185    77.64865     2.96210
       430 17611.72057    74.32459    75.92930     3.02621
       431 17625.80995    73.06859    74.09736     3.08065
       432 17639.91059    72.35747    72.69608     3.12979
       433 17654.02252    72.97765    73.56981     3.07400
       434 17668.14574    72.21303    74.27481     3.09752
       435 17682.28026    69.88646    70.52165     3.19958
       436 17696.42608    67.92426    68.16873     3.25143
       437 17710.58322    67.12187    66.86392     3.30667
       438 17724.75169    67.51996    66.20695     3.33748
       439 17738.93149    68.00199    67.58280     3.32453
       440 17753.12264    68.03374    68.64119     3.29940
       441 17767.32513    68.97832    68.96385     3.24246
       442 17781.53899    71.14350    71.76189     3.14848
       443 17795.76423    72.69444    73.49236     3.13729
       444 17810.00084    72.54540    72.66050     3.11566
       445 17824.24884    70.94666    71.25041     3.17766
       446 17838.50824    69.25253    68.46559     3.25223
       447 17852.77904    68.52600    67.81419     3.26830
       448 17867.06127    68.72186    68.38799     3.28736
       449 17881.35492    69.09231    67.64189     3.26639
       450 17895.66000    70.03112    68.60473     3.25495
       451 17909.97653    72.08280    70.53897     3.14608
       452 17924.30451    75.23422    75.39090     3.08888
       453 17938.64395    78.31643    79.42366     2.98789
       454 17952.99487    78.34047    78.20885     2.99669
       455 17967.35726    75.16901    74.14454     3.11559
       456 17981.73115    72.49248    70.57350     3.22702
       457 17996.11653    70.57548    68.55305     3.27305
       458 18010.51343    68.25544    65.97353     3.34215
       459 18024.92184    66.76143    65.33154     3.34476
       460 18039.34178    67.14898    65.36392     3.32774
       461 18053.77325    69.11410    66.07610     3.30714
       462 18068.21627    70.75463    69.64836     3.24437
       463 18082.67084    71.58957    69.64667     3.22403
       464 18097.13698    73.20383    70.05413     3.14723
       465 18111.61469    73.91782    71.06149     3.16523
       466 18126.10398    72.73482    70.43384     3.17791
       467 18140.60486    72.40809    71.38485     3.15834
       468 18155.11735    72.88339    71.37255     3.14270
       469 18169.64144    74.29880    71.90726     3.06238
       470 18184.17715    75.84468    73.46026     3.07927
       471 18198.72449    73.34339    70.95041     3.13842
       472 18213.28347    68.97640    67.15888     3.20977
       473 18227.85410    66.60611    66.14393     3.25629
       474 18242.43638    66.94280    66.65541     3.17522
       475 18257.03033    68.24637    69.71127     3.07988
       476 18271.63596    67.97597    67.85803     3.05301
       477 18286.25327    66.60687    65.43556     3.15140
       478 18300.88227    66.18822    65.14285     3.18444
       479 18315.52297    67.47015    65.45600     3.20178
       480 18330.17539    69.82795    67.84537     3.10219
       481 18344.83953    71.25514    70.52071     3.05965
       482 18359.51540    70.09209    69.29995     3.07729
       483 18374.20302    68.33268    67.49574     3.11876
       484 18388.90238    67.82675    67.52793     3.13100
       485 18403.61350    67.76777    67.10749     3.13645
       486 18418.33639    68.45571    66.15021     3.11266
       487 18433.07106    71.55472    70.50010     3.01448
       488 18447.81752    75.00980    75.66618     2.88104
       489 18462.57577    74.33924    75.96017     2.87327
       490 18477.34583    70.71675    71.46099     2.96387
       491 18492.12771    68.20327    68.70955     3.05225
       492 18506.92141    66.91605    67.26222     3.05999
       493 18521.72695    65.55269    66.16832     3.08443
       494 18536.54433    64.40191    64.08410     3.11650
       495 18551.37357    63.95821    63.20924     3.11305
       496 18566.21466    64.09130    64.12455     3.10627
       497 18581.06764    64.92382    64.75748     3.08493
       498 18595.93249    66.81297    67.57163     3.01351
       499 18610.80924    68.67833    70.13826     2.88780
       500 18625.69788    68.42439    69.94376     2.92424
       501 18640.59844    66.70638    66.27749     2.99363
       502 18655.51092    65.62443    66.32836     2.99627
       503 18670.43533    65.62058    65.95077     2.97278
       504 18685.37168    65.99145    67.10269     2.98515
       505 18700.31998    66.10463    68.70720     2.91905
       506 18715.28023    65.89355    67.35152     2.90792
       507 18730.25246    66.04871    70.14459     2.86521
       508 18745.23666    67.84690    69.62385     2.88072
       509 18760.23285    72.69802    71.86552     2.80424
       510 18775.24103    77.98215    76.79272     2.67549
       511 18790.26123    79.17096    80.27691     2.59816
       512 18805.29343    76.10193    77.87721     2.64304
       513 18820.33767    71.84465    73.62830     2.75749
       514 18835.39394    69.53056    71.97116     2.77076
       515 18850.46226    69.35939    70.84295     2.79709
       516 18865.54262    68.99995    71.02170     2.79112
       517 18880.63506    67.62519    69.21310     2.83423
       518 18895.73957    66.26105    68.85415     2.84245
       519 18910.85616    65.29471    68.28942     2.85506
       520 18925.98484    64.63426    67.59637     2.87574
       521 18941.12563    64.60235    67.04670     2.90415
       522 18956.27853    64.94248    64.66333     2.89036
       523 18971.44355    65.11035    66.08469     2.88409
       524 18986.62071    65.08433    65.64621     2.84930
       525 19001.81001    65.21771    65.93356     2.86772
       526 19017.01145    66.13291    66.76379     2.82062
       527 19032.22506    67.17776    68.38233     2.79538
       528 19047.45084    67.01629    67.72292     2.80753
       529 19062.68880    66.12710    65.88404     2.86714
       530 19077.93896    65.75398    66.29750     2.84448
       531 19093.20131    66.45777    65.35172     2.83971
       532 19108.47587    67.97944    67.15455     2.84182
       533 19123.76265    69.04441    68.68377     2.77857
       534 19139.06166    68.40361    66.95282     2.80375
       535 19154.37291    67.27478    65.19060     2.81773
       536 19169.69641    67.83561    66.83537     2.77587
       537 19185.03216    70.01567    70.85527     2.70873
       538 19200.38019    71.34258    72.77215     2.65653
       539 19215.74049    70.01083    70.40249     2.66441
       540 19231.11309    67.95814    69.12809     2.73225
       541 19246.49798    66.79493    67.68492     2.73958
       542 19261.89517    66.47658    67.00483     2.77704
       543 19277.30469    66.64334    67.13418     2.76067
       544 19292.72653    67.49358    68.18044     2.71950
       545 19308.16072    70.41444    69.88778     2.65798
       546 19323.60724    73.75071    74.11626     2.52470
       547 19339.06613    73.14325    72.65579     2.57602
       548 19354.53738    70.12670    69.87421     2.64736
       549 19370.02101    68.02683    66.82969     2.73337
       550 19385.51703    66.91925    65.69180     2.73349
       551 19401.02544    67.12652    65.58049     2.73134
       552 19416.54626    69.18820    67.46216     2.61789
       553 19432.07950    71.88535    71.94021     2.53565
       554 19447.62516    73.88943    74.80980     2.50744
       555 19463.18326    75.53913    77.21263     2.44438
       556 19478.75381    75.34886    76.93601     2.42593
       557 19494.33681    73.24219    72.99109     2.55603
       558 19509.93228    71.76693    70.29781     2.54477
       559 19525.54023    70.13697    69.07572     2.57834
       560 19541.16066    67.60818    66.76856     2.63360
       561 19556.79359    65.85646    63.93113     2.68861
       562 19572.43902    66.13608    65.15875     2.63980
       563 19588.09698    67.46148    67.88412     2.56440
       564 19603.76745    67.98770    67.69880     2.56412
       565 19619.45047    67.73791    65.85643     2.62429
       566 19635.14603    67.42842    66.11417     2.55577
       567 19650.85414    67.06773    65.69278     2.56506
       568 19666.57483    66.64222    66.65592     2.54861
       569 19682.30809    66.95504    67.77602     2.52166
       570 19698.05393    67.91793    68.32386     2.44349
       571 19713.81238    68.85233    69.67581     2.44018
       572 19729.58343    69.82293    69.98380     2.38340
       573 19745.36709    72.07306    72.02504     2.36723
       574 19761.16339    74.85257    73.61006     2.30339
       575 19776.97232    75.68426    75.26818     2.26208
       576 19792.79390    75.30424    74.63599     2.30049
       577 19808.62813    76.08884    74.91018     2.25172
       578 19824.47503    75.70654    75.48198     2.26023
       579 19840.33461    72.66887    73.03576     2.30482
       580 19856.20688    69.55988    70.08974     2.37474
       581 19872.09185    68.19562    68.58253     2.37616
       582 19887.98952    68.18523    68.99942     2.34951
       583 19903.89991    68.03131    68.09955     2.33380
       584 19919.82303    66.92276    67.24239     2.35064
       585 19935.75889    65.58982    65.57887     2.40957
       586 19951.70750    64.92661    64.81686     2.42070
       587 19967.66886    65.26265    63.88089     2.39308
       588 19983.64300    66.71100    64.97650     2.36953
       589 19999.62991    69.37526    68.09165     2.31327
       590 20015.62962    72.15910    71.91257     2.24130
       591 20031.64212    72.60956    72.40530     2.22680
       592 20047.66743    70.71998    70.36017     2.22503
       593 20063.70557    69.15386    67.57648     2.25662
       594 20079.75653    68.46899    68.02224     2.26287
       595 20095.82034    68.68736    68.96442     2.24170
       596 20111.89699    71.91087    73.55206     2.11649
       597 20127.98651    77.89633    82.58216     1.99897
       598 20144.08890    81.36927    89.98849     1.86360
       599 20160.20417    79.84675    84.88518     1.92659
       600 20176.33234    75.71131    79.68068     1.99765
       601 20192.47340    71.68379    74.88332     2.07510
       602 20208.62738    69.04805    70.99364     2.14842
       603 20224.79428    67.85017    68.79638     2.15554
       604 20240.97412    67.64545    68.37108     2.14700
       605 20257.16690    67.72069    68.84530     2.15038
       606 20273.37263    68.98213    69.04962     2.11058
       607 20289.59133    73.59566    74.57500     2.01787
       608 20305.82300    79.30983    82.05327     1.88599
       609 20322.06766    80.19314    83.60720     1.88277
       610 20338.32531    77.83844    81.53670     1.90285
       611 20354.59597    76.28886    78.31581     1.92779
       612 20370.87965    74.59220    76.59408     1.99003
       613 20387.17635    71.93746    73.13804     2.00982
       614 20403.48610    69.41743    69.39119     2.08456
       615 20419.80888    67.73029    70.22788     2.04064
       616 20436.14473    66.96010    68.83326     2.06274
       617 20452.49365    66.96852    68.08149     2.06479
       618 20468.85564    67.99052    70.35255     2.04293
       619 20485.23073    70.48545    74.16317     1.94920
       620 20501.61891    74.36950    79.54319     1.87056
       621 20518.02021    78.49228    85.70050     1.78308
       622 20534.43462    79.99812    86.97829     1.75435
       623 20550.86217    76.80750    82.59780     1.80644
       624 20567.30286    71.96276    75.98244     1.87789
       625 20583.75670    68.84128    71.06626     1.95546
       626 20600.22371    67.52056    67.91643     2.03932
       627 20616.70389    66.77111    67.33223     2.05029
       628 20633.19725    66.23777    66.32815     2.09546
       629 20649.70381    65.91122    66.87350     2.06844
       630 20666.22357    65.82252    65.98878     2.05869
       631 20682.75655    66.45168    66.26610     2.03332
       632 20699.30275    67.86681    67.10812     2.01393
       633 20715.86220    69.04513    68.64807     2.00600
       634 20732.43489    69.16246    67.61374     2.00341
       635 20749.02083    68.60331    66.95165     2.01909
       636 20765.62005    68.41601    67.70302     1.99897
       637 20782.23255    68.92189    66.85561     2.01942
       638 20798.85833    69.47641    68.07458     1.97491
       639 20815.49742    70.89458    68.28219     1.96415
       640 20832.14982    75.01621    73.35389     1.87175
       641 20848.81554    79.29177    76.99399     1.81626
       642 20865.49459    78.87284    77.88281     1.82104
       643 20882.18699    75.31601    73.95513     1.87708
       644 20898.89274    72.56415    71.15816     1.90129
       645 20915.61185    71.92044    69.71892     1.93931
       646 20932.34434    72.76094    69.08179     1.93822
       647 20949.09021    72.84341    68.81727     1.90925
       648 20965.84949    71.36164    68.77668     1.92995
       649 20982.62217    69.85026    69.50972     1.92680
       650 20999.40826    69.15831    70.86432     1.85187
       651 21016.20779    69.52631    71.59811     1.87131
       652 21033.02076    72.16236    73.43450     1.81820
       653 21049.84717    79.64712    80.19209     1.69987
       654 21066.68705    93.65055    94.46581     1.52733
       655 21083.54040   108.89904   107.36741     1.38580
       656 21100.40723   113.36203   111.66121     1.34196
       657 21117.28756   104.67519   102.80128     1.42494
       658 21134.18139    94.44631    93.03468     1.50523
       659 21151.08873    87.20429    86.65964     1.59546
       660 21168.00961    81.05795    80.41073     1.68529
       661 21184.94401    75.98881    74.46898     1.77661
       662 21201.89197    73.02254    71.66865     1.80703
       663 21218.85348    71.90112    69.78917     1.83745
       664 21235.82856    71.60628    68.06171     1.84676
       665 21252.81723    71.46857    67.37148     1.83173
       666 21269.81948    70.90880    68.39168     1.84581
       667 21286.83534    70.52166    67.71981     1.83633
       668 21303.86481    71.32670    69.76517     1.82221
       669 21320.90790    72.60815    70.50198     1.76964
       670 21337.96462    72.75221    71.15439     1.74056
       671 21355.03499    72.08503    69.33266     1.77415
       672 21372.11902    71.49905    69.97584     1.78847
       673 21389.21672    71.49094    67.81833     1.79225
       674 21406.32809    72.07899    69.08644     1.76079
       675 21423.45315    72.38090    70.17193     1.74218
       676 21440.59192    72.45314    70.51189     1.71782
       677 21457.74439    72.45067    72.35153     1.68516
       678 21474.91059    72.01323    70.42538     1.73394
       679 21492.09051    71.70758    71.75332     1.68842
       680 21509.28419    72.52776    72.31695     1.69737
       681 21526.49161    75.13776    74.25291     1.63257
       682 21543.71281    81.05138    80.41101     1.53096
       683 21560.94778    90.48094    90.33531     1.41852
       684 21578.19654    96.81819    97.51988     1.33483
       685 21595.45909    92.96901    93.14852     1.34573
       686 21612.73546    84.49798    85.95591     1.43454
       687 21630.02565    79.55232    78.72811     1.49558
       688 21647.32967    79.81631    77.73950     1.50046
       689 21664.64753    82.68624    83.35422     1.44726
       690 21681.97925    84.83064    86.48911     1.42914
       691 21699.32483    85.56461    88.16662     1.39792
       692 21716.68429    84.44515    87.63384     1.40627
       693 21734.05764    81.41887    81.72450     1.45109
       694 21751.44489    77.62915    77.93939     1.49915
       695 21768.84604    74.34344    74.48240     1.51689
       696 21786.26112    72.34752    72.19470     1.57385
       697 21803.69013    71.07154    70.47906     1.58653
       698 21821.13308    70.06099    70.02849     1.58692
       699 21838.58999    69.78428    69.63493     1.60280
       700 21856.06086    70.61228    70.83934     1.57409
       701 21873.54571    72.90639    73.15490     1.53287
       702 21891.04454    75.11305    75.61413     1.49547
       703 21908.55738    74.36625    75.19972     1.47527
       704 21926.08423    71.83219    73.19888     1.50825
       705 21943.62509    70.30009    71.84157     1.51902
       706 21961.17999    70.51424    72.65023     1.50291
       707 21978.74894    72.05516    74.39415     1.44774
       708 21996.33194    73.93888    76.03179     1.45292
       709 22013.92900    74.97594    75.84298     1.44540
       710 22031.54015    75.90412    75.37587     1.43958
       711 22049.16538    77.75016    80.70384     1.38335
       712 22066.80471    79.57267    83.22759     1.35464
       713 22084.45815    80.74633    85.60054     1.30691
       714 22102.12572    83.53842    89.25429     1.25738
       715 22119.80742    93.47419    96.81175     1.18323
       716 22137.50327   109.38219   114.64927     1.04939
       717 22155.21327   115.33363   124.00017     0.98057
       718 22172.93744   104.52861   111.39017     1.06901
       719 22190.67579    90.95466    94.71817     1.18998
       720 22208.42833    84.81424    88.44113     1.25167
       721 22226.19507    82.49085    88.41273     1.24981
       722 22243.97603    78.29213    84.61823     1.31101
       723 22261.77121    73.41156    75.92535     1.35377
       724 22279.58063    70.33536    72.85502     1.42286
       725 22297.40429    68.95546    70.35580     1.42534
       726 22315.24222    68.59840    71.18558     1.44732
       727 22333.09441    69.28178    70.48633     1.42167
       728 22350.96088    70.38606    71.38605     1.42081
       729 22368.84165    70.55893    73.29210     1.37913
       730 22386.73673    69.71881    71.23533     1.40196
       731 22404.64612    68.91643    71.32932     1.40806
       732 22422.56983    69.89839    71.75172     1.37730
       733 22440.50789    75.70523    78.03665     1.30441
       734 22458.46030    87.71506    92.28575     1.18618
       735 22476.42706    98.60895   104.95696     1.06313
       736 22494.40820    98.96266   107.51647     1.04224
       737 22512.40373    91.43164    95.97972     1.12944
       738 22530.41365    82.72601    89.20547     1.20819
       739 22548.43799    76.67855    78.28884     1.30186
       740 22566.47674    74.07496    77.86702     1.34373
       741 22584.52992    72.78159    77.06457     1.33031
       742 22602.59754    71.08010    72.00562     1.39368
       743 22620.67962    69.32067    70.66868     1.39493
       744 22638.77616    68.35332    69.03985     1.39865
       745 22656.88718    68.76510    69.04186     1.41927
       746 22675.01269    71.43152    70.81033     1.38518
       747 22693.15270    76.35967    75.51193     1.31391
       748 22711.30723    80.27769    79.90220     1.26076
       749 22729.47627    80.46972    79.76278     1.28032
       750 22747.65985    79.18746    77.56074     1.30016
       751 22765.85798    78.30779    77.88510     1.30280
       752 22784.07067    77.26297    76.72074     1.30962
       753 22802.29792    75.94108    74.25449     1.34385
       754 22820.53976    74.73038    74.73464     1.33037
       755 22838.79619    74.24450    74.20879     1.33442
       756 22857.06723    75.03491    75.49968     1.33640
       757 22875.35288    78.13877    76.57354     1.27907
       758 22893.65317    83.68475    83.62596     1.23709
       759 22911.96809    88.54563    90.89932     1.17089
       760 22930.29766    89.46100    90.71024     1.15848
       761 22948.64190    85.28097    87.11625     1.18530
       762 22967.00082    79.44548    78.89581     1.25415
       763 22985.37442    75.91464    76.18855     1.28968
       764 23003.76272    74.79182    75.07914     1.28571
       765 23022.16573    75.05232    75.02769     1.28201
       766 23040.58346    77.39043    78.12462     1.27378
       767 23059.01593    81.15986    82.97989     1.22028
       768 23077.46314    84.62883    85.04779     1.19255
       769 23095.92511    87.45594    84.19163     1.18716
       770 23114.40185    86.62049    83.58783     1.18275
       771 23132.89337    81.04720    78.09645     1.24691
       772 23151.39968    75.48609    72.31486     1.32350
       773 23169.92080    73.93278    70.97464     1.30404
       774 23188.45674    77.48308    75.61428     1.25198
       775 23207.00751    85.30294    85.21156     1.15720
       776 23225.57311    92.23767    92.80670     1.09121
       777 23244.15357    92.45776    91.55426     1.09658
       778 23262.74889    87.76033    87.33126     1.13296
       779 23281.35909    81.56795    80.66776     1.19147
       780 23299.98418    76.19480    75.07034     1.26518
       781 23318.62417    72.98871    71.05909     1.26714
       782 23337.27907    70.94740    69.85903     1.28976
       783 23355.94889    69.28457    68.38842     1.30255
       784 23374.63365    68.32271    66.66133     1.29548
       785 23393.33336    68.15782    64.82896     1.33746
       786 23412.04802    68.77015    65.80812     1.31571
       787 23430.77766    69.86518    65.08414     1.30340
       788 23449.52228    70.68642    67.17398     1.31058
       789 23468.28190    70.41294    68.84932     1.27689
       790 23487.05653    68.95217    66.21632     1.28470
       791 23505.84617    67.61103    64.04087     1.31132
       792 23524.65085    67.45109    65.23177     1.31480
       793 23543.47057    67.96827    63.96306     1.31669
       794 23562.30535    68.09555    63.87250     1.30783
       795 23581.15519    67.91338    64.33068     1.32458
       796 23600.02011    67.91110    65.00494     1.29199
       797 23618.90013    68.17824    64.09520     1.29446
       798 23637.79525    69.03319    65.68491     1.27299
       799 23656.70549    70.07347    68.52821     1.21840
       800 23675.63085    70.69855    70.51038     1.21489
       801 23694.57136    72.47936    71.90130     1.17365
       802 23713.52701    77.72883    78.69990     1.12198
       803 23732.49783    85.96709    84.93818     1.02895
       804 23751.48383    90.70195    92.91274     1.00345
       805 23770.48502    87.11353    89.46380     1.02232
       806 23789.50141    79.44230    79.31706     1.09972
       807 23808.53301    73.23172    70.87400     1.15515
       808 23827.57984    70.72383    70.42458     1.16909
       809 23846.64190    71.94621    70.05744     1.15342
       810 23865.71921    75.03741    74.51785     1.11107
       811 23884.81179    76.35620    77.97993     1.07804
       812 23903.91964    74.68036    74.21775     1.10531
       813 23923.04277    72.17562    72.70864     1.13610
       814 23942.18121    70.09102    69.40941     1.16322
       815 23961.33495    68.41421    67.47589     1.17706
       816 23980.50402    67.16995    66.33150     1.17274
       817 23999.68842    66.68702    65.50637     1.16095
       818 24018.88817    66.85998    65.57675     1.17430
       819 24038.10328    67.02461    66.24102     1.17606
       820 24057.33377    66.64678    63.93113     1.17188
       821 24076.57963    65.79798    63.71322     1.18836
       822 24095.84090    65.25389    63.72037     1.18495
       823 24115.11757    65.61719    64.49259     1.16062
       824 24134.40967    66.58101    65.63858     1.12881
       825 24153.71719    67.56718    66.65146     1.11520
       826 24173.04017    69.47302    67.55980     1.09548
       827 24192.37860    74.51741    73.72311     1.03904
       828 24211.73250    81.79224    81.85626     0.97504
       829 24231.10189    85.11231    85.14208     0.93837
       830 24250.48677    82.78181    80.42346     0.97552
       831 24269.88716    79.30892    78.79749     0.98989
       832 24289.30307    76.69932    77.78136     1.00541
       833 24308.73451    74.00704    74.95673     1.03061
       834 24328.18150    71.06225    71.54486     1.05044
       835 24347.64404    68.52431    68.28534     1.05647
       836 24367.12216    66.83585    64.74335     1.10861
       837 24386.61586    66.23104    64.36612     1.10766
       838 24406.12515    66.16382    65.11147     1.08173
       839 24425.65005    65.74256    63.18786     1.09436
       840 24445.19057    65.05563    65.74764     1.08235
       841 24464.74672    64.85007    64.13424     1.07276
       842 24484.31852    65.80701    65.70225     1.07597
       843 24503.90597    68.47586    69.29848     1.04577
       844 24523.50910    72.43486    74.58233     0.97573
       845 24543.12791    75.91118    78.61819     0.94413
       846 24562.76241    78.79739    82.24469     0.91414
       847 24582.41262    83.02592    86.49273     0.87815
       848 24602.07855    87.10091    90.11842     0.83707
       849 24621.76021    86.70479    91.90686     0.85342
       850 24641.45762    81.29089    86.45039     0.85699
       851 24661.17079    74.60337    78.46901     0.92639
       852 24680.89972    70.20775    72.29665     0.97963
       853 24700.64444    68.31570    70.45641     0.98318
       854 24720.40496    67.33330    69.67657     0.99481
       855 24740.18128    66.21798    70.19207     0.99214
       856 24759.97343    65.04741    68.97718     1.01049
       857 24779.78141    64.20655    67.26858     0.99838
       858 24799.60523    63.92517    69.16350     1.01179
       859 24819.44491    64.38525    66.06965     1.00390
       860 24839.30047    66.34108    68.54418     0.96570
       861 24859.17191    71.08241    72.55464     0.93197
       862 24879.05925    77.71414    80.57744     0.87272
       863 24898.96250    81.14897    83.33251     0.86370
       864 24918.88167    78.39058    81.77597     0.87945
       865 24938.81677    72.67013    74.89263     0.91575
       866 24958.76782    67.72220    69.94096     0.95582
       867 24978.73484    64.70346    67.39040     0.96344
       868 24998.71783    63.23833    66.48437     0.97776
       869 25018.71680    62.76600    67.05696     0.97351
       870 25038.73177    62.97445    65.82244     0.96268
       871 25058.76276    63.66116    65.39298     0.98003
       872 25078.80977    64.34790    66.55667     0.99086
       873 25098.87282    64.53881    65.75855     0.95578
       874 25118.95192    64.62410    66.88281     0.94240
       875 25139.04708    65.32795    69.41681     0.95668
       876 25159.15832    66.46461    73.73383     0.92708
       877 25179.28564    66.94818    69.74778     0.93618
       878 25199.42907    66.36787    71.10567     0.91925
       879 25219.58861    65.25638    69.42695     0.94302
       880 25239.76428    64.36850    67.66788     0.93920
       881 25259.95610    64.44823    67.24316     0.93440
       882 25280.16406    65.78606    67.89736     0.93249
       883 25300.38819    67.95523    71.95844     0.92737
       884 25320.62850    70.34666    71.89426     0.90200
       885 25340.88501    71.87979    77.04500     0.87354
       886 25361.15771    71.11564    74.89961     0.88234
       887 25381.44664    68.37416    70.17793     0.91543
       888 25401.75180    65.65596    68.96788     0.93514
       889 25422.07320    64.48225    68.36413     0.94704
       890 25442.41086    64.98067    68.63854     0.92504
       891 25462.76479    65.91350    70.43250     0.92073
       892 25483.13500    65.73683    68.79697     0.91820
       893 25503.52151    64.60759    67.88523     0.93425
       894 25523.92432    63.91466    64.12319     0.97781
       895 25544.34346    64.57497    65.30329     0.95696
       896 25564.77894    66.28522    66.58993     0.93229
       897 25585.23076    68.00266    68.89451     0.93592
       898 25605.69894    69.86018    68.03962     0.92888
       899 25626.18350    72.77373    72.90994     0.89304
       900 25646.68445    75.58184    77.59799     0.88423
       901 25667.20180    75.71357    76.78363     0.86718
       902 25687.73556    72.98182    74.01815     0.88019
       903 25708.28575    69.74334    71.78660     0.92554
       904 25728.85238    67.40399    67.53567     0.93006
       905 25749.43546    65.92387    67.45982     0.96561
       906 25770.03501    65.09385    66.26825     0.95037
       907 25790.65103    64.90304    63.57254     0.96280
       908 25811.28356    65.45510    65.04989     0.96230
       909 25831.93258    67.13447    67.77035     0.92198
       910 25852.59813    69.46024    71.94005     0.89739
       911 25873.28021    70.53475    71.93280     0.87199
       912 25893.97883    69.61370    70.48581     0.90270
       913 25914.69401    68.83844    68.49137     0.90485
       914 25935.42577    70.91796    69.92150     0.88957
       915 25956.17411    75.40405    72.72593     0.87322
       916 25976.93905    77.98234    76.16066     0.84747
       917 25997.72060    76.03148    73.76806     0.86444
       918 26018.51878    71.55815    67.99824     0.87999
       919 26039.33359    67.55616    65.20556     0.93264
       920 26060.16506    65.41545    61.40511     0.94381
       921 26081.01319    64.81824    64.38161     0.93240
       922 26101.87800    64.72613    64.83324     0.92269
       923 26122.75950    64.65338    63.83061     0.92525
       924 26143.65771    64.89931    62.92385     0.93851
       925 26164.57264    66.15300    62.73778     0.91266
       926 26185.50430    69.75647    71.04076     0.88009
       927 26206.45270    76.42427    76.50835     0.80629
       928 26227.41786    84.68729    86.31498     0.74095
       929 26248.39980    94.40776    94.07748     0.71310
       930 26269.39852   106.27073   106.47154     0.63639
       931 26290.41403   112.47318   112.59794     0.61690
       932 26311.44637   106.08152   106.54539     0.63124
       933 26332.49552    94.53802    95.31283     0.68783
       934 26353.56152    85.94004    85.67975     0.72183
       935 26374.64437    79.47968    77.90862     0.77733
       936 26395.74408    73.29057    70.97422     0.81805
       937 26416.86068    68.63421    67.15891     0.85978
       938 26437.99417    66.56705    64.83265     0.87903
       939 26459.14456    66.30405    61.22936     0.87210
       940 26480.31188    66.10914    63.02488     0.86368
       941 26501.49613    65.20819    62.77644     0.87955
       942 26522.69733    64.22483    62.59380     0.86651
       943 26543.91548    63.79550    60.95278     0.87390
       944 26565.15062    63.83863    64.97659     0.85759
       945 26586.40274    64.18181    62.16165     0.85983
       946 26607.67186    65.46351    62.76421     0.83793
       947 26628.95800    68.38178    67.52534     0.81972
       948 26650.26116    71.96314    69.96715     0.79593
       949 26671.58137    74.09279    73.98275     0.75837
       950 26692.91864    74.38973    72.36823     0.77034
       951 26714.27297    73.53527    69.87445     0.77205
       952 26735.64439    72.00844    67.74892     0.80996
       953 26757.03290    70.08378    67.84633     0.79285
       954 26778.43853    67.74723    63.98575     0.81345
       955 26799.86128    65.58880    60.78164     0.84028
       956 26821.30117    64.33714    61.66504     0.85056
       957 26842.75821    64.63508    62.54956     0.82334
       958 26864.23242    68.08079    67.93878     0.78592
       959 26885.72380    77.11141    74.48787     0.74131
       960 26907.23238    90.46159    89.31970     0.63379
       961 26928.75817    99.19094    96.02337     0.61721
       962 26950.30118    96.45763    96.15638     0.61314
       963 26971.86142    87.87918    90.16258     0.64536
       964 26993.43891    81.47136    79.16685     0.68915
       965 27015.03366    79.03543    78.01291     0.68757
       966 27036.64568    77.57343    74.13676     0.71192
       967 27058.27500    74.91791    73.97692     0.71498
       968 27079.92162    71.95224    70.26180     0.72340
       969 27101.58556    69.82553    68.66730     0.74378
       970 27123.26683    68.42494    68.38665     0.74707
       971 27144.96544    67.08477    64.95181     0.75368
       972 27166.68141    65.61004    63.74890     0.77269
       973 27188.41476    64.42397    59.92676     0.78657
       974 27210.16549    64.02331    62.91596     0.76930
       975 27231.93362    65.05769    61.40097     0.75082
       976 27253.71917    68.46944    66.52567     0.72975
       977 27275.52214    74.09765    72.88001     0.68011
       978 27297.34256    79.19105    80.94035     0.64249
       979 27319.18044    82.30224    84.81097     0.62294
       980 27341.03578    87.42204    87.52282     0.60833
       981 27362.90861    96.48455    96.62283     0.56491
       982 27384.79894   102.45744   100.38636     0.54802
       983 27406.70677    98.20382    96.54260     0.55795
       984 27428.63214    87.40250    87.14379     0.60342
       985 27450.57505    77.63616    76.20420     0.65995
       986 27472.53551    71.72809    70.74058     0.67814
       987 27494.51353    68.53555    65.69550     0.70175
       988 27516.50914    67.25906    66.58403     0.71048
       989 27538.52235    68.39167    65.79822     0.71340
       990 27560.55317    71.99483    70.40256     0.67673
       991 27582.60161    76.12208    77.18909     0.65460
       992 27604.66769    78.80585    76.87105     0.64629
       993 27626.75143    81.33195    79.06362     0.60626
       994 27648.85283    84.17490    83.20548     0.60708
       995 27670.97191    83.74362    79.22497     0.61039
       996 27693.10869    79.12597    76.36944     0.61883
       997 27715.26318    74.73125    74.13241     0.64201
       998 27737.43539    75.49951    72.00217     0.63368
       999 27759.62533    83.88070    79.38846     0.59002
      1000 27781.83303    96.75313    96.06378     0.52862
      1001 27804.05850   104.08495    99.18457     0.50082
      1002 27826.30175    99.48616    99.50505     0.51561
      1003 27848.56279    88.59188    87.49113     0.55632
      1004 27870.84164    80.15673    80.48246     0.56740
      1005 27893.13831    77.33091    74.72586     0.55556
      1006 27915.45282    77.06102    79.45333     0.57243
      1007 27937.78519    75.06535    75.30847     0.55731
      1008 27960.13541    71.09818    70.56866     0.59364
      1009 27982.50352    67.38412    67.74090     0.61802
      1010 28004.88953    65.17988    63.63217     0.64777
      1011 28027.29344    64.39062    63.23119     0.66217
      1012 28049.71527    64.46526    62.31750     0.64143
      1013 28072.15504    64.80924    64.39141     0.64973
      1014 28094.61277    65.14748    65.04739     0.64129
      1015 28117.08846    65.71752    64.70805     0.64215
      1016 28139.58213    66.52435    66.34448     0.63776
      1017 28162.09379    67.20275    68.29267     0.61437
      1018 28184.62347    68.04461    70.22681     0.60607
      1019 28207.17117    69.62016    71.50718     0.60068
      1020 28229.73691    71.71852    71.38756     0.57874
      1021 28252.32069    73.95928    78.72319     0.57946
      1022 28274.92255    75.67057    81.55243     0.55281
      1023 28297.54249    75.10602    77.96725     0.54785
      1024 28320.18052    72.12593    77.71656     0.56584
      1025 28342.83667    68.90798    73.48759     0.58457
      1026 28365.51094    67.19041    66.42494     0.60450
      1027 28388.20335    67.11968    70.78297     0.59870
      1028 28410.91391    67.83779    76.05150     0.56584
      1029 28433.64264    68.29827    73.44703     0.57173
      1030 28456.38955    68.09770    76.33695     0.56378
      1031 28479.15467    67.41530    73.74721     0.57375
      1032 28501.93799    66.32496    72.05480     0.58001
      1033 28524.73954    65.05841    69.68346     0.57349
      1034 28547.55933    64.03023    67.23847     0.59812
      1035 28570.39738    63.44224    65.20221     0.60806
      1036 28593.25370    63.29758    67.30757     0.57903
      1037 28616.12830    63.77392    67.32047     0.59219
      1038 28639.02120    65.50021    70.42910     0.57481
      1039 28661.93242    68.99716    73.31059     0.54713
      1040 28684.86197    73.09794    75.96368     0.53775
      1041 28707.80985    74.80544    79.91103     0.52915
      1042 28730.77610    73.07638    78.49863     0.53204
      1043 28753.76072    70.13974    74.14540     0.54138
      1044 28776.76373    68.10862    73.24425     0.56690
      1045 28799.78514    67.43133    68.68057     0.56889
      1046 28822.82497    67.47071    67.88821     0.58542
      1047 28845.88323    67.25625    68.19578     0.58634
      1048 28868.95994    66.41026    68.64641     0.58663
      1049 28892.05511    65.43523    66.74233     0.57508
      1050 28915.16875    65.10797    69.53890     0.58352
      1051 28938.30088    66.53923    69.02442     0.59611
      1052 28961.45153    71.60378    74.84375     0.55341
      1053 28984.62069    81.36968    84.76394     0.51440
      1054 29007.80838    92.38965    93.85205     0.47031
      1055 29031.01463    97.27753   104.39829     0.43895
      1056 29054.23944    93.85199    99.67107     0.44925
      1057 29077.48283    86.34205    92.32564     0.48010
      1058 29100.74482    79.14344    84.51751     0.52043
      1059 29124.02542    75.06226    80.41318     0.54765
      1060 29147.32464    74.83095    76.75553     0.55139
      1061 29170.64250    76.61081    75.10146     0.56368
      1062 29193.97901    77.16366    79.80664     0.53239
      1063 29217.33419    74.96515    75.35338     0.55135
      1064 29240.70806    71.25994    70.81596     0.56357
      1065 29264.10063    68.04036    69.14795     0.56954
      1066 29287.51191    66.43851    66.65522     0.60214
      1067 29310.94192    66.67914    67.77746     0.59437
      1068 29334.39067    68.52289    67.55010     0.60833
      1069 29357.85818    71.74712    71.47049     0.55465
      1070 29381.34447    76.34784    79.68549     0.53656
      1071 29404.84954    80.82316    83.94041     0.51665
      1072 29428.37342    81.54921    85.09781     0.51153
      1073 29451.91612    77.65560    79.62411     0.53651
      1074 29475.47766    72.20930    73.57781     0.54698
      1075 29499.05804    67.88243    70.25290     0.58536
      1076 29522.65728    65.28067    66.36246     0.59349
      1077 29546.27541    63.93686    65.25363     0.60646
      1078 29569.91243    63.34154    61.24749     0.61150
      1079 29593.56836    63.23664    63.46615     0.62697
      1080 29617.24322    63.60989    65.14770     0.63260
      1081 29640.93701    64.60958    65.20477     0.61523
      1082 29664.64976    66.25139    66.18161     0.61035
      1083 29688.38148    67.99609    67.95479     0.59862
      1084 29712.13218    69.01637    68.39433     0.58594
      1085 29735.90189    69.33024    66.28846     0.58392
      1086 29759.69061    69.35084    68.57160     0.59775
      1087 29783.49836    69.07646    71.25176     0.58934
      1088 29807.32516    68.85949    69.10310     0.58727
      1089 29831.17102    69.46592    71.77276     0.58253
      1090 29855.03596    71.24958    71.14989     0.57147
      1091 29878.91999    73.33647    72.20995     0.56100
      1092 29902.82312    73.70639    71.69851     0.55103
      1093 29926.74538    71.84568    72.87008     0.54364
      1094 29950.68678    69.25762    71.33751     0.57574
      1095 29974.64733    67.25067    65.18859     0.58140
      1096 29998.62705    66.14783    68.17501     0.59466
      1097 30022.62595    65.54129    63.09171     0.61008
      1098 30046.64405    64.89721    62.61120     0.60962
      1099 30070.68136    64.21715    60.03080     0.61368
      1100 30094.73791    63.90632    61.39074     0.60003
      1101 30118.81370    64.40971    65.69191     0.59136
      1102 30142.90875    66.16558    64.86598     0.59723
      1103 30167.02308    69.52198    68.90700     0.57412
      1104 30191.15670    74.10991    73.42835     0.57278
      1105 30215.30962    78.03058    76.31468     0.54435
      1106 30239.48187    79.24009    75.86146     0.53248
      1107 30263.67345    78.82776    77.97707     0.51939
      1108 30287.88439    79.92767    79.65012     0.51444
      1109 30312.11470    82.84252    82.97744     0.51376
      1110 30336.36439    84.26219    83.10931     0.48969
      1111 30360.63348    82.69580    84.02140     0.48692
      1112 30384.92199    79.92916    78.56010     0.52133
      1113 30409.22993    77.19630    76.70070     0.52241
      1114 30433.55731    74.93079    71.78088     0.53898
      1115 30457.90416    73.28534    69.22744     0.53673
      1116 30482.27048    71.77319    69.78477     0.55632
      1117 30506.65630    70.36626    69.73428     0.54489
      1118 30531.06162    69.45182    71.28197     0.53935
      1119 30555.48647    68.88050    71.89221     0.54888
      1120 30579.93086    68.36385    72.31114     0.53096
      1121 30604.39481    68.81824    68.88437     0.54994
      1122 30628.87832    72.60698    70.77682     0.53166
      1123 30653.38142    81.94168    84.42772     0.49334
      1124 30677.90413    95.42281    92.24660     0.44734
      1125 30702.44645   105.78604   108.13261     0.39583
      1126 30727.00841   106.67935   111.03597     0.39490
      1127 30751.59002   102.27003   101.05693     0.41286
      1128 30776.19129   101.21083   103.32736     0.42527
      1129 30800.81224   105.03989   106.68513     0.40635
      1130 30825.45289   106.30602   104.41426     0.41250
      1131 30850.11325    99.17575   100.50888     0.41157
      1132 30874.79334    87.07545    89.48285     0.46232
      1133 30899.49318    76.18722    74.16675     0.51578
      1134 30924.21277    69.25915    66.84437     0.54561
      1135 30948.95214    65.84947    63.19479     0.55255
      1136 30973.71131    64.76147    61.23901     0.55010
      1137 30998.49028    65.24793    65.07465     0.55173
      1138 31023.28907    67.00435    64.41770     0.53744
      1139 31048.10770    70.01764    69.49415     0.52871
      1140 31072.94618    74.24951    76.18615     0.50027
      1141 31097.80454    78.50442    77.30389     0.49128
      1142 31122.68279    79.97242    77.28247     0.48170
      1143 31147.58093    77.27283    74.64233     0.50460
      1144 31172.49900    72.81718    70.63296     0.51540
      1145 31197.43700    70.02636    70.02363     0.51067
      1146 31222.39495    70.57221    69.77145     0.52090
      1147 31247.37286    73.43572    71.13125     0.51097
      1148 31272.37076    75.39277    75.29726     0.48495
      1149 31297.38866    73.95260    70.98421     0.48963
      1150 31322.42657    70.12623    67.61889     0.49879
      1151 31347.48451    66.36185    63.70355     0.52159
      1152 31372.56250    63.92405    64.34536     0.54967
      1153 31397.66055    62.76488    61.29788     0.54917
      1154 31422.77867    62.47176    61.99445     0.54768
      1155 31447.91690    62.73395    61.51579     0.55998
      1156 31473.07523    63.28452    62.46175     0.54410
      1157 31498.25369    63.84990    60.79809     0.53718
      1158 31523.45229    64.31399    62.14892     0.52503
      1159 31548.67106    64.84262    63.62678     0.51520
      1160 31573.90999    65.94173    66.31054     0.50865
      1161 31599.16912    68.71424    71.58846     0.49784
      1162 31624.44846    75.35998    76.98227     0.47138
      1163 31649.74801    88.54258    86.52506     0.42636
      1164 31675.06781   107.43370   108.56719     0.36839
      1165 31700.40787   123.23663   123.11941     0.32528
      1166 31725.76819   123.98852   122.61117     0.32716
      1167 31751.14881   109.48958   110.17137     0.35790
      1168 31776.54973    90.75062    90.11860     0.40828
      1169 31801.97097    76.53002    76.80847     0.46517
      1170 31827.41254    68.54438    67.75387     0.49965
      1171 31852.87447    64.78844    63.72781     0.51530
      1172 31878.35677    63.17767    62.68787     0.52837
      1173 31903.85946    62.65596    60.59932     0.52128
      1174 31929.38255    63.14302    64.56202     0.50418
      1175 31954.92605    65.41076    63.52393     0.50794
      1176 31980.48999    70.42284    69.84385     0.47631
      1177 32006.07439    77.51056    75.19789     0.45358
      1178 32031.67924    83.06260    82.67805     0.43056
      1179 32057.30459    83.50977    80.48878     0.43166
      1180 32082.95043    79.92057    79.66206     0.43442
      1181 32108.61679    75.58837    73.40130     0.45925
      1182 32134.30369    71.96249    69.93168     0.47127
      1183 32160.01113    69.24238    69.66207     0.47424
      1184 32185.73914    68.17785    64.95775     0.46917
      1185 32211.48773    70.18189    69.05291     0.46753
      1186 32237.25692    76.53370    75.20949     0.44397
      1187 32263.04672    86.59926    87.26517     0.39529
      1188 32288.85716    95.63031    93.90582     0.37722
      1189 32314.68825    96.78672    99.00117     0.36860
      1190 32340.54000    89.48619    93.65924     0.38091
      1191 32366.41243    79.97290    80.20533     0.42402
      1192 32392.30556    74.27257    75.10303     0.42702
      1193 32418.21940    74.83622    75.79353     0.42149
      1194 32444.15398    80.45818    81.23142     0.40409
      1195 32470.10930    86.65488    88.81700     0.39507
      1196 32496.08539    88.38830    89.58218     0.38461
      1197 32522.08226    85.70037    84.55915     0.39729
      1198 32548.09992    83.31443    86.87963     0.38630
      1199 32574.13840    84.73682    87.04341     0.39672
      1200 32600.19772    89.01454    90.63309     0.36869
      1201 32626.27787    91.62142    95.09009     0.35933
      1202 32652.37890    89.37872    91.85339     0.37259
      1203 32678.50080    84.22462    84.91877     0.39249
      1204 32704.64360    79.23796    81.14675     0.39229
      1205 32730.80731    75.65718    79.97754     0.40402
      1206 32756.99196    74.51778    72.58423     0.41811
      1207 32783.19755    76.99525    78.25697     0.40753
      1208 32809.42411    81.95519    83.92027     0.38872
      1209 32835.67165    84.96633    86.54059     0.37582
      1210 32861.94019    82.48224    85.37806     0.37939
      1211 32888.22974    76.13694    77.18272     0.38776
      1212 32914.54032    69.72465    68.50732     0.41926
      1213 32940.87196    65.38186    65.76367     0.43420
      1214 32967.22465    63.16826    63.22487     0.45170
      1215 32993.59843    62.44906    63.88701     0.44010
      1216 33019.99331    62.87886    63.76169     0.44983
      1217 33046.40931    64.32968    62.90444     0.43492
      1218 33072.84643    66.24927    68.87456     0.43387
      1219 33099.30471    67.49389    69.64668     0.42426
      1220 33125.78416    67.42059    70.18937     0.41928
      1221 33152.28478    66.67838    72.18895     0.42404
      1222 33178.80661    66.02040    65.24858     0.42051
      1223 33205.34966    65.42253    65.01061     0.42798
      1224 33231.91394    64.74917    69.54910     0.41754
      1225 33258.49947    64.29523    67.16363     0.43094
      1226 33285.10627    64.38357    67.35511     0.41853
      1227 33311.73435    65.10162    66.75597     0.43258
      1228 33338.38374    66.39027    66.92061     0.42413
      1229 33365.05445    68.16573    67.46903     0.41455
      1230 33391.74649    70.80513    70.89818     0.39725
      1231 33418.45989    75.28916    70.41257     0.39702
      1232 33445.19465    82.72077    81.85525     0.36447
      1233 33471.95081    94.16380    95.35572     0.33721
      1234 33498.72837   108.90629   111.27090     0.29906
      1235 33525.52735   121.77838   124.22845     0.28214
      1236 33552.34778   125.86046   130.59389     0.26455
      1237 33579.18965   117.83097   117.97055     0.28039
      1238 33606.05301   101.88405   105.68385     0.30469
      1239 33632.93785    85.99604    89.33301     0.33787
      1240 33659.84420    75.21345    76.62625     0.37348
      1241 33686.77207    70.72439    73.05843     0.38381
      1242 33713.72149    72.57016    68.42193     0.38454
      1243 33740.69247    81.12976    81.34908     0.35219
      1244 33767.68502    95.06724    98.28722     0.32389
      1245 33794.69917   108.44868   112.83280     0.29003
      1246 33821.73493   113.24028   113.01757     0.28160
      1247 33848.79232   108.14658   111.49320     0.28854
      1248 33875.87135   100.19409    99.92404     0.31288
      1249 33902.97205    95.98765    96.90980     0.32177
      1250 33930.09443    97.40248    94.08036     0.32705
      1251 33957.23850   104.84654   102.61520     0.30645
      1252 33984.40429   118.19260   116.78739     0.27284
      1253 34011.59182   131.38465   129.48491     0.26103
      1254 34038.80109   132.76211   132.23539     0.24616
      1255 34066.03213   118.91327   121.67285     0.26869
      1256 34093.28496    98.73916   100.43481     0.30506
      1257 34120.55958    81.82487    85.72412     0.34678
      1258 34147.85603    71.54497    77.23008     0.36292
      1259 34175.17432    66.56483    70.03896     0.37143
      1260 34202.51446    64.64310    65.31102     0.38151
      1261 34229.87647    64.65643    66.23475     0.39265
      1262 34257.26037    66.84519    67.10105     0.37633
      1263 34284.66618    71.83539    71.97876     0.37159
      1264 34312.09391    78.82017    82.13209     0.34351
      1265 34339.54359    84.46500    85.05076     0.32419
      1266 34367.01522    85.26277    90.33229     0.31877
      1267 34394.50883    81.90907    86.79123     0.32255
      1268 34422.02444    78.06108    83.51651     0.34555
      1269 34449.56206    76.06995    78.91839     0.34912
      1270 34477.12171    75.77304    80.78640     0.33769
      1271 34504.70341    75.68734    77.95839     0.33472
      1272 34532.30717    74.33914    74.85215     0.35426
      1273 34559.93301    71.60845    75.90327     0.35464
      1274 34587.58096    68.42480    71.51492     0.36444
      1275 34615.25103    65.62346    68.37351     0.37267
      1276 34642.94323    63.54119    63.22842     0.39045
      1277 34670.65758    62.14591    60.99698     0.38424
      1278 34698.39411    61.29415    59.50505     0.40476
      1279 34726.15282    60.84332    60.06149     0.39605
      1280 34753.93374    60.66404    63.20757     0.39832
      1281 34781.73689    60.62957    59.33346     0.40292
      1282 34809.56228    60.61437    60.48418     0.38420
      1283 34837.40993    60.54341    62.35841     0.38415
      1284 34865.27986    60.43962    61.84451     0.39110
      1285 34893.17208    60.38149    58.35210     0.38134
      1286 34921.08662    60.47301    59.31853     0.40725
      1287 34949.02349    60.87169    62.25963     0.37222
      1288 34976.98271    61.74673    62.16659     0.36922
      1289 35004.96429    63.09198    64.53683     0.37357
      1290 35032.96827    64.52030    64.10668     0.36488
      1291 35060.99464    65.42730    65.90756     0.35649
      1292 35089.04344    65.60068    65.12943     0.36911
      1293 35117.11467    65.32678    66.36589     0.36167
      1294 35145.20836    64.72775    68.32666     0.35498
      1295 35173.32453    63.73203    64.98767     0.35422
      1296 35201.46319    62.54955    63.69060     0.36929
      1297 35229.62436    61.54077    63.11737     0.37352
      1298 35257.80806    60.90232    58.19751     0.38017
      1299 35286.01431    60.60381    60.61621     0.36772
      1300 35314.24312    60.49971    59.50811     0.37920
      1301 35342.49451    60.45373    58.36645     0.37050
      1302 35370.76851    60.41761    58.52566     0.38128
      1303 35399.06512    60.41130    60.71841     0.37742
      1304 35427.38437    60.46961    61.56035     0.37665
      1305 35455.72628    60.67784    59.34211     0.38149
      1306 35484.09086    61.31208    60.75412     0.38135
      1307 35512.47814    63.07179    60.67054     0.36759
      1308 35540.88812    67.03316    68.32858     0.36077
      1309 35569.32083    73.67901    71.61869     0.32389
      1310 35597.77629    81.27933    81.25334     0.30746
      1311 35626.25451    85.60012    91.93952     0.28822
      1312 35654.75551    83.76673    88.60700     0.29876
      1313 35683.27931    77.96409    78.81075     0.31330
      1314 35711.82594    72.56396    71.68460     0.32924
      1315 35740.39540    70.35678    72.09278     0.33264
      1316 35768.98771    71.49608    72.56779     0.31909
      1317 35797.60290    74.16496    75.68965     0.31618
      1318 35826.24099    76.07877    74.49478     0.32856
      1319 35854.90198    76.52959    76.49774     0.32199
      1320 35883.58590    76.51568    75.94168     0.31729
      1321 35912.29277    76.96510    76.11861     0.32396
      1322 35941.02260    77.36644    71.97224     0.33636
      1323 35969.77542    76.52789    76.76462     0.31937
      1324 35998.55124    74.08294    71.60875     0.31914
      1325 36027.35008    70.90699    67.64370     0.33062
      1326 36056.17196    68.61845    65.28664     0.33856
      1327 36085.01690    68.28315    66.52000     0.33270
      1328 36113.88491    69.57850    67.39344     0.34274
      1329 36142.77602    70.97323    71.20665     0.33034
      1330 36171.69024    71.10562    69.93599     0.32364
      1331 36200.62760    70.06689    70.61310     0.32962
      1332 36229.58810    68.49757    69.10564     0.32200
      1333 36258.57177    66.60733    65.38065     0.32408
      1334 36287.57863    64.58015    64.49539     0.34302
      1335 36316.60869    62.80812    61.64879     0.35409
      1336 36345.66198    61.59432    57.28788     0.34868
      1337 36374.73851    61.02748    60.01564     0.35256
      1338 36403.83830    61.12253    60.06870     0.35443
      1339 36432.96137    61.94933    63.39267     0.33927
      1340 36462.10774    63.48089    61.10787     0.34289
      1341 36491.27742    65.25317    63.46515     0.33626
      1342 36520.47044    66.31051    66.55653     0.32812
      1343 36549.68682    66.01182    65.97129     0.31672
      1344 36578.92657    64.85595    66.38109     0.33370
      1345 36608.18971    64.06456    61.91724     0.32916
      1346 36637.47626    65.10374    63.40186     0.32639
      1347 36666.78624    69.60222    68.89672     0.30510
      1348 36696.11967    78.61410    77.49502     0.29212
      1349 36725.47657    90.66533    94.84609     0.25419
      1350 36754.85695   100.37093   105.52914     0.23311
      1351 36784.26084   101.48705   104.21971     0.23932
      1352 36813.68824    93.80445    92.32655     0.24934
      1353 36843.13919    82.92381    81.52724     0.27602
      1354 36872.61371    74.29563    78.37980     0.29213
      1355 36902.11180    70.28803    70.96920     0.30012
      1356 36931.63349    70.64655    71.05989     0.30529
      1357 36961.17879    73.58820    72.65617     0.29565
      1358 36990.74774    76.28739    76.59593     0.28276
      1359 37020.34033    76.18503    77.40298     0.27777
      1360 37049.95661    73.28849    73.23297     0.30440
      1361 37079.59657    69.92504    71.73829     0.30380
      1362 37109.26025    68.44677    66.98657     0.31112
      1363 37138.94766    69.62763    67.18689     0.30208
      1364 37168.65882    72.21148    71.42044     0.28384
      1365 37198.39374    73.61654    73.03004     0.28921
      1366 37228.15246    72.16019    71.06306     0.29667
      1367 37257.93498    68.68355    70.24077     0.29601
      1368 37287.74133    65.05081    67.04763     0.30454
      1369 37317.57152    62.42273    65.65787     0.31060
      1370 37347.42558    60.94399    59.17681     0.31491
      1371 37377.30352    60.25599    55.89110     0.31421
      1372 37407.20536    60.00632    59.24482     0.31927
      1373 37437.13113    60.02465    55.67466     0.32340
      1374 37467.08083    60.32346    59.01238     0.31429
      1375 37497.05449    61.05481    61.84130     0.30665
      1376 37527.05214    62.40664    61.95137     0.30924
      1377 37557.07378    64.46218    61.92222     0.29802
      1378 37587.11944    67.22428    67.95292     0.29778
      1379 37617.18913    71.01618    71.82288     0.28251
      1380 37647.28289    76.88416    77.25409     0.27210
      1381 37677.40071    85.76977    86.80744     0.25620
      1382 37707.54263    96.94328    99.92292     0.22581
      1383 37737.70867   107.89549   108.86976     0.21298
      1384 37767.89883   116.13634   119.56674     0.20419
      1385 37798.11315   119.43285   126.41303     0.19120
      1386 37828.35164   118.03742   119.78646     0.19501
      1387 37858.61432   117.79445   116.91265     0.19670
      1388 37888.90122   124.51077   127.79503     0.18912
      1389 37919.21234   136.02673   139.13466     0.17105
      1390 37949.54771   141.87549   142.96334     0.17082
      1391 37979.90735   134.58179   137.96258     0.17123
      1392 38010.29127   118.78978   116.33306     0.19640
      1393 38040.69950   103.94630   107.53389     0.21053
      1394 38071.13206    94.94631    96.45938     0.21722
      1395 38101.58897    90.33581    94.11979     0.22668
      1396 38132.07024    85.85424    89.91668     0.22621
      1397 38162.57590    79.43165    74.57632     0.24694
      1398 38193.10596    72.33486    74.00236     0.25804
      1399 38223.66044    66.48331    68.69311     0.28159
      1400 38254.23937    62.66071    59.29874     0.28649
      1401 38284.84276    60.54739    60.38485     0.30577
      1402 38315.47064    59.47082    58.18755     0.29917
      1403 38346.12301    58.91348    57.36031     0.29814
      1404 38376.79991    58.59634    60.81498     0.29796
      1405 38407.50135    58.39342    57.87371     0.29570
      1406 38438.22735    58.25104    55.60031     0.30372
      1407 38468.97793    58.14586    59.37182     0.29442
      1408 38499.75312    58.06758    58.09922     0.30132
      1409 38530.55292    58.01189    55.08262     0.29804
      1410 38561.37736    57.97437    58.79994     0.28729
      1411 38592.22646    57.95936    55.78714     0.29598
      1412 38623.10024    57.98648    58.40227     0.28009
      1413 38653.99872    58.09580    55.38350     0.29418
      1414 38684.92192    58.41179    60.07334     0.29422
      1415 38715.86986    59.20999    58.56077     0.28920
      1416 38746.84256    60.91401    61.80291     0.27333
      1417 38777.84003    63.85261    63.18230     0.26317
      1418 38808.86230    67.78006    67.36656     0.26670
      1419 38839.90939    71.51661    74.31426     0.24858
      1420 38870.98132    73.43993    74.31140     0.24461
      1421 38902.07811    72.63456    75.10844     0.23949
      1422 38933.19977    69.67841    68.57202     0.24178
      1423 38964.34633    66.22766    65.50504     0.25907
      1424 38995.51781    63.83161    62.47403     0.25803
      1425 39026.71422    63.67783    62.23611     0.25153
      1426 39057.93559    67.35153    66.33422     0.23864
      1427 39089.18194    77.38100    78.60904     0.23261
      1428 39120.45328    95.94515    96.43340     0.19669
      1429 39151.74965   121.41995   122.46094     0.16838
      1430 39183.07105   145.57225   148.68493     0.14680
      1431 39214.41750   156.97752   159.84220     0.13543
      1432 39245.78904   151.42324   153.19297     0.14359
      1433 39277.18567   134.40963   135.76498     0.14973
      1434 39308.60742   113.52134   114.67009     0.17739
      1435 39340.05430    94.22952    92.40335     0.19439
      1436 39371.52635    79.38160    81.92778     0.21699
      1437 39403.02357    69.51585    72.22429     0.22929
      1438 39434.54599    63.81039    68.72877     0.23627
      1439 39466.09362    60.97226    60.72524     0.24577
      1440 39497.66650    59.85538    62.08069     0.24358
      1441 39529.26463    59.66741    59.06839     0.24345
      1442 39560.88804    59.87511    58.99954     0.24836
      1443 39592.53675    60.10326    59.45067     0.24383
      1444 39624.21078    60.10865    61.90656     0.24253
      1445 39655.91015    59.79263    60.09573     0.24103
      1446 39687.63488    59.31081    60.60915     0.24438
      1447 39719.38499    59.04642    55.08940     0.25162
      1448 39751.16050    59.33070    60.76414     0.25716
      1449 39782.96142    60.23286    62.63951     0.23655
      1450 39814.78779    61.43901    65.10252     0.23891
      1451 39846.63962    62.41262    65.08255     0.24903
      1452 39878.51694    63.17752    66.59585     0.23268
      1453 39910.41975    65.08755    66.99193     0.23052
      1454 39942.34808    70.70819    74.83253     0.21629
      1455 39974.30196    82.45491    85.07308     0.20370
      1456 40006.28140    99.95127    96.59138     0.18248
      1457 40038.28643   117.56892   115.14463     0.15870
      1458 40070.31706   125.78703   125.28548     0.15089
      1459 40102.37331   119.43019   117.97417     0.15629
      1460 40134.45521   103.22202   104.54812     0.16894
      1461 40166.56278    85.73691    83.66781     0.19359
      1462 40198.69603    72.54708    75.65223     0.20836
      1463 40230.85498    64.72211    67.18949     0.22507
      1464 40263.03967    60.75706    63.97479     0.23611
      1465 40295.25010    58.82400    60.18734     0.22389
      1466 40327.48630    57.78303    55.96993     0.24643
      1467 40359.74829    57.14397    51.36268     0.25298
      1468 40392.03609    56.72944    57.88262     0.23543
      1469 40424.34971    56.46276    53.50707     0.23550
      1470 40456.68919    56.29398    58.98932     0.23477
      1471 40489.05455    56.18668    61.57779     0.23134
      1472 40521.44579    56.12219    54.28443     0.24426
      1473 40553.86295    56.08585    55.78800     0.24315
      1474 40586.30604    56.07021    53.96960     0.23140
      1475 40618.77508    56.07689    57.78570     0.23369
      1476 40651.27010    56.11031    53.37442     0.23102
      1477 40683.79112    56.18507    53.26306     0.23091
      1478 40716.33815    56.35292    56.29596     0.23472
      1479 40748.91122    56.76612    54.67088     0.22510
      1480 40781.51035    57.82024    57.92506     0.23060
      1481 40814.13556    60.25037    60.55070     0.23052
      1482 40846.78687    64.88445    64.90357     0.21425
      1483 40879.46430    71.82448    65.87048     0.19119
      1484 40912.16787    79.42949    73.56485     0.18161
      1485 40944.89760    84.26782    79.24984     0.18786
      1486 40977.65352    83.51323    86.04358     0.18184
      1487 41010.43564    77.90029    73.01743     0.18463
      1488 41043.24399    70.62023    67.72806     0.20060
      1489 41076.07859    64.40469    64.22022     0.20892
      1490 41108.93945    60.31352    56.00834     0.21555
      1491 41141.82660    58.08600    57.57526     0.22040
      1492 41174.74006    57.02058    56.95812     0.21801
      1493 41207.67985    56.53610    52.73352     0.22969
      1494 41240.64600    56.32078    54.60232     0.20369
      1495 41273.63852    56.23642    50.39470     0.21549
      1496 41306.65743    56.21732    55.69768     0.22175
      1497 41339.70275    56.23834    56.55396     0.21398
      1498 41372.77451    56.29516    51.51985     0.22054
      1499 41405.87273    56.39523    58.07768     0.21756
      1500 41438.99743    56.56281    52.63976     0.22431
      1501 41472.14863    56.87756    53.96642     0.21208
      1502 41505.32635    57.58360    55.80630     0.20908
      1503 41538.53061    59.25613    57.50267     0.21159
      1504 41571.76143    62.86892    61.91006     0.19813
      1505 41605.01884    69.39362    67.94428     0.18925
      1506 41638.30286    78.72106    74.26594     0.16840
      1507 41671.61350    88.55099    89.21096     0.16059
      1508 41704.95079    94.68434    91.33197     0.15539
      1509 41738.31475    94.29694    91.17797     0.15332
      1510 41771.70540    89.18529    89.88419     0.15248
      1511 41805.12277    83.73465    86.64115     0.15420
      1512 41838.56687    80.89810    78.80556     0.16871
      1513 41872.03772    80.34282    84.45609     0.16617
      1514 41905.53535    79.40011    77.88248     0.16399
      1515 41939.05978    76.12954    75.62381     0.16475
      1516 41972.61103    71.12539    67.77717     0.17362
      1517 42006.18912    66.18618    61.04634     0.18514
      1518 42039.79407    62.66593    59.93815     0.18027
      1519 42073.42590    60.97665    60.23061     0.18576
      1520 42107.08464    60.86028    61.30656     0.18754
      1521 42140.77031    61.75474    60.24448     0.18740
      1522 42174.48293    62.99914    61.05867     0.18150
      1523 42208.22251    64.13453    61.85977     0.18729
      1524 42241.98909    65.50975    69.07122     0.17742
      1525 42275.78268    68.69402    70.66320     0.16407
      1526 42309.60331    76.14067    79.13551     0.16287
      1527 42343.45099    89.94996    89.21309     0.14694
      1528 42377.32575   109.48571   108.83262     0.13101
      1529 42411.22761   129.19058   128.57128     0.11307
      1530 42445.15659   139.59516   143.37732     0.10295
      1531 42479.11272   134.62870   138.67447     0.10538
      1532 42513.09601   117.94627   121.63673     0.11528
      1533 42547.10649    98.30192    99.98535     0.13116
      1534 42581.14417    82.59706    89.44730     0.14116
      1535 42615.20909    73.36427    77.91049     0.14644
      1536 42649.30125    69.77099    72.77252     0.15777
      1537 42683.42070    69.69703    73.85610     0.15504
      1538 42717.56743    71.14319    78.53467     0.14855
      1539 42751.74149    72.87153    79.47508     0.14652
      1540 42785.94288    74.97677    76.60670     0.14426
      1541 42820.17163    78.53163    84.40461     0.14535
      1542 42854.42777    83.79843    85.57491     0.13923
      1543 42888.71131    88.86194    90.43268     0.13763
      1544 42923.02228    90.43855    99.17178     0.12971
      1545 42957.36070    87.17127    89.78102     0.13535
      1546 42991.72659    81.27423    84.12444     0.13903
      1547 43026.11997    76.28619    80.43717     0.14420
      1548 43060.54087    74.55941    79.17410     0.14732
      1549 43094.98930    76.22625    81.22301     0.14501
      1550 43129.46529    79.44835    83.51111     0.13816
      1551 43163.96886    81.52557    85.58143     0.13979
      1552 43198.50004    80.47167    82.68593     0.14004
      1553 43233.05884    76.49517    70.21770     0.15236
      1554 43267.64528    71.57627    73.59229     0.14557
      1555 43302.25940    67.89800    67.87059     0.15335
      1556 43336.90121    67.17705    72.73090     0.15784
      1557 43371.57073    70.77823    74.98287     0.15093
      1558 43406.26799    79.60440    88.00048     0.13136
      1559 43440.99300    93.09703   101.37000     0.12128
      1560 43475.74579   107.92489   112.44040     0.11273
      1561 43510.52639   118.10455   123.61904     0.10411
      1562 43545.33481   118.74277   120.51862     0.10375
      1563 43580.17108   110.44902   114.40709     0.10806
      1564 43615.03522    97.69605   103.10143     0.11985
      1565 43649.92724    84.90821    89.69790     0.12739
      1566 43684.84719    74.78168    82.13851     0.13562
      1567 43719.79506    68.11292    74.27708     0.14382
      1568 43754.77090    64.58245    71.88500     0.14904
      1569 43789.77472    63.60109    70.46174     0.14865
      1570 43824.80654    64.65563    67.61060     0.15638
      1571 43859.86638    67.16994    77.44838     0.14416
      1572 43894.95428    70.28515    76.10848     0.14505
      1573 43930.07024    73.06521    75.61255     0.13982
      1574 43965.21429    75.51320    77.78778     0.14046
      1575 44000.38647    79.24697    80.39447     0.13387
      1576 44035.58678    86.11337    93.00612     0.12975
      1577 44070.81524    95.84946   100.23225     0.12059
      1578 44106.07190   104.89375   101.80063     0.11395
      1579 44141.35675   108.00216   106.74185     0.11288
      1580 44176.66984   102.97960   104.49170     0.11536
      1581 44212.01118    92.72978    95.76891     0.11646
      1582 44247.38078    81.87706    91.41588     0.13037
      1583 44282.77869    73.53585    78.46251     0.14405
      1584 44318.20491    68.67582    64.86004     0.15694
      1585 44353.65948    66.91593    63.23683     0.15420
      1586 44389.14240    67.29680    65.94548     0.15191
      1587 44424.65372    68.56133    63.59963     0.15257
      1588 44460.19344    69.32062    66.76593     0.15593
      1589 44495.76160    68.66300    68.22398     0.15406
      1590 44531.35820    66.79362    62.52720     0.15949
      1591 44566.98329    64.62635    62.34175     0.15745
      1592 44602.63688    62.98980    63.03903     0.17105
      1593 44638.31899    62.21611    58.21135     0.16531
      1594 44674.02964    62.14246    60.17972     0.15509
      1595 44709.76887    62.38508    60.09688     0.16360
      1596 44745.53668    62.77668    57.99083     0.16080
      1597 44781.33311    63.72522    62.50414     0.15150
      1598 44817.15818    66.06268    63.87241     0.15793
      1599 44853.01190    70.45884    68.54331     0.14701
      1600 44888.89431    76.56613    71.59933     0.14461
      1601 44924.80543    82.50685    77.63490     0.13961
      1602 44960.74527    85.39303    80.80861     0.13557
      1603 44996.71387    83.53331    75.97362     0.13278
      1604 45032.71124    78.08713    77.90850     0.13624
      1605 45068.73741    71.63275    65.69948     0.15029
      1606 45104.79240    66.19955    61.18484     0.15871
      1607 45140.87623    62.55602    61.99697     0.15036
      1608 45176.98893    60.50132    54.36570     0.15389
      1609 45213.13053    59.47719    53.40361     0.16297
      1610 45249.30103    58.99911    54.80649     0.15912
      1611 45285.50047    58.77555    58.88132     0.15879
      1612 45321.72887    58.66252    59.26945     0.16056
      1613 45357.98625    58.60919    56.76611     0.16249
      1614 45394.27264    58.59014    59.46334     0.15764
      1615 45430.58806    58.61477    53.75897     0.16001
      1616 45466.93253    58.65935    54.46639     0.15408
      1617 45503.30608    58.73712    54.04621     0.16277
      1618 45539.70872    58.90045    52.69582     0.15748
      1619 45576.14049    59.27628    61.51887     0.15953
      1620 45612.60140    60.13043    55.79391     0.15688
      1621 45649.09148    61.87984    60.53608     0.14041
      1622 45685.61076    64.94224    61.48828     0.14887
      1623 45722.15924    69.32793    70.99069     0.14035
      1624 45758.73697    74.21005    71.59255     0.13142
      1625 45795.34396    77.85440    75.73935     0.12972
      1626 45831.98024    78.51666    75.67428     0.12462
      1627 45868.64582    75.99894    72.55852     0.13165
      1628 45905.34074    71.69815    73.45007     0.13027
      1629 45942.06501    67.31377    66.89866     0.14170
      1630 45978.81866    63.92579    62.54698     0.13872
      1631 46015.60172    61.80985    58.02768     0.15612
      1632 46052.41420    60.75523    58.50920     0.15323
      1633 46089.25613    60.41696    59.58910     0.14578
      1634 46126.12754    60.59546    59.74414     0.14256
      1635 46163.02844    61.38082    61.03722     0.14129
      1636 46199.95886    63.29627    63.99931     0.14344
      1637 46236.91883    67.41969    64.89074     0.12970
      1638 46273.90836    75.22054    71.08669     0.12885
      1639 46310.92749    87.84870    87.76618     0.11769
      1640 46347.97623   105.03947   102.69335     0.10184
      1641 46385.05461   124.31429   124.66880     0.09364
      1642 46422.16266   141.60684   140.13394     0.08686
      1643 46459.30039   153.99096   156.47479     0.07819
      1644 46496.46783   160.62390   161.05885     0.07508
      1645 46533.66500   160.07630   159.45786     0.07565
      1646 46570.89193   150.19915   150.72653     0.07991
      1647 46608.14865   132.22738   132.29584     0.08858
      1648 46645.43516   111.22536   115.79206     0.09612
      1649 46682.75151    92.38524    92.79804     0.10812
      1650 46720.09771    78.56134    82.40468     0.11376
      1651 46757.47379    70.04083    70.92072     0.12934
      1652 46794.87977    65.63705    63.58031     0.13106
      1653 46832.31567    64.01616    67.21614     0.13300
      1654 46869.78153    64.53535    61.04216     0.13596
      1655 46907.27735    67.52357    68.49433     0.12588
      1656 46944.80317    74.12120    73.74009     0.11881
      1657 46982.35902    85.67545    82.57784     0.11436
      1658 47019.94490   102.74682   104.07206     0.09599
      1659 47057.56086   124.06288   128.22098     0.08424
      1660 47095.20691   146.12087   147.75273     0.07488
      1661 47132.88307   164.60980   172.33544     0.06857
      1662 47170.58938   176.19648   179.97491     0.06728
      1663 47208.32585   177.77128   183.87352     0.06509
      1664 47246.09251   166.92635   171.87652     0.06777
      1665 47283.88939   145.71195   151.63156     0.07650
      1666 47321.71650   120.56243   128.94348     0.08766
      1667 47359.57387    97.90440   105.38037     0.09348
      1668 47397.46153    81.24642    92.98427     0.10832
      1669 47435.37950    70.97347    75.22058     0.11680
      1670 47473.32780    65.62177    64.28969     0.12695
      1671 47511.30647    63.35695    68.26413     0.12183
      1672 47549.31551    62.81032    62.19440     0.13218
      1673 47587.35496    63.24165    61.65479     0.13183
      1674 47625.42485    64.36935    63.05044     0.13439
      1675 47663.52519    65.97607    60.78978     0.13195
      1676 47701.65601    67.56651    63.36455     0.13281
      1677 47739.81733    68.40646    64.21374     0.12220
      1678 47778.00919    68.03285    62.60889     0.12993
      1679 47816.23159    66.68839    68.47638     0.13290
      1680 47854.48458    65.15582    61.76358     0.12933
      1681 47892.76817    64.14560    64.12209     0.13487
      1682 47931.08238    63.84651    61.63096     0.12017
      1683 47969.42725    63.86472    65.93537     0.12332
      1684 48007.80279    63.59002    61.05398     0.12989
      1685 48046.20903    62.75831    61.58567     0.12429
      1686 48084.64600    61.62364    62.68464     0.12524
      1687 48123.11371    60.69322    64.35555     0.12011
      1688 48161.61221    60.56870    66.39045     0.11589
      1689 48200.14150    62.09389    65.67224     0.11175
      1690 48238.70161    66.67373    67.19615     0.10617
      1691 48277.29257    76.32503    84.49350     0.09505
      1692 48315.91440    92.84986    94.17029     0.08396
      1693 48354.56714   116.01178   120.26388     0.07302
      1694 48393.25079   141.61018   142.90195     0.06591
      1695 48431.96539   161.16734   158.49465     0.06161
      1696 48470.71096   165.72731   156.73355     0.06343
      1697 48509.48753   153.26263   150.07032     0.06700
      1698 48548.29512   130.21204   127.99283     0.07536
      1699 48587.13376   105.45461   107.59234     0.08499
      1700 48626.00346    85.18513    91.45131     0.09715
      1701 48664.90427    71.51732    66.14651     0.10615
      1702 48703.83619    63.59621    64.69746     0.11647
      1703 48742.79926    59.48049    60.73606     0.13009
      1704 48781.79350    57.44910    59.16702     0.12710
      1705 48820.81893    56.41883    57.43902     0.13200
      1706 48859.87559    55.83897    56.98941     0.12838
      1707 48898.96349    55.46633    50.04048     0.13146
      1708 48938.08266    55.20151    55.03448     0.12482
      1709 48977.23313    55.00497    57.37553     0.13009
      1710 49016.41491    54.86369    51.85365     0.12333
      1711 49055.62804    54.77531    50.03748     0.13524
      1712 49094.87255    54.74606    55.61849     0.13241
      1713 49134.14845    54.78783    53.90313     0.12606
      1714 49173.45576    54.89658    51.82869     0.12392
      1715 49212.79453    55.07986    60.20828     0.12933
      1716 49252.16476    55.30675    57.55674     0.11733
      1717 49291.56650    55.55150    61.42869     0.12607
      1718 49330.99975    55.83856    53.80037     0.11725
      1719 49370.46455    56.26184    55.01869     0.11698
      1720 49409.96092    56.93949    66.31042     0.11041
      1721 49449.48889    58.02747    60.09587     0.11742
      1722 49489.04848    59.76493    60.08934     0.11703
      1723 49528.63972    62.81381    65.98176     0.10658
      1724 49568.26263    68.72494    78.50306     0.10317
      1725 49607.91724    80.07219    85.50611     0.10167
      1726 49647.60357    99.46392    99.68350     0.08626
      1727 49687.32166   127.30765   134.92335     0.07541
      1728 49727.07152   159.40155   160.42771     0.06214
      1729 49766.85317   186.15561   190.61117     0.05668
      1730 49806.66665   196.10602   198.44155     0.05323
      1731 49846.51199   184.54814   172.52613     0.05741
      1732 49886.38920   157.66714   156.34572     0.06277
      1733 49926.29831   126.38646   133.84512     0.06804
      1734 49966.23935    99.33865   106.76848     0.08358
      1735 50006.21234    80.22005    87.30077     0.09277
      1736 50046.21731    68.56986    77.95486     0.10016
      1737 50086.25428    62.06889    69.94645     0.10834
      1738 50126.32329    58.49077    60.97223     0.11314
      1739 50166.42434    56.43397    60.29257     0.11487
      1740 50206.55748    55.16976    59.53990     0.12225
      1741 50246.72273    54.36559    58.23691     0.11436
      1742 50286.92011    53.85715    58.07951     0.11906
      1743 50327.14964    53.55217    52.14202     0.11748
      1744 50367.41136    53.41155    55.57287     0.11859
      1745 50407.70529    53.46694    53.14687     0.11683
      1746 50448.03146    53.86325    50.62783     0.11906
      1747 50488.38988    54.90657    52.47685     0.11672
      1748 50528.78059    57.05836    63.88623     0.12494
      1749 50569.20362    60.74955    51.23016     0.11641
      1750 50609.65898    66.01873    64.13535     0.10838
      1751 50650.14671    72.11366    67.13336     0.10478
      1752 50690.66683    77.32936    68.80711     0.10034
      1753 50731.21936    79.55390    76.83530     0.09319
      1754 50771.80434    77.76569    76.86837     0.09907
      1755 50812.42178    72.94241    71.06265     0.09738
      1756 50853.07172    67.08001    67.72153     0.10611
      1757 50893.75417    61.90221    60.80215     0.10477
      1758 50934.46918    58.34648    63.57781     0.11167
      1759 50975.21675    56.71974    54.54242     0.10510
      1760 51015.99693    57.20076    61.68672     0.10296
      1761 51056.80972    60.28669    64.26497     0.10635
      1762 51097.65517    66.80754    71.43180     0.10190
      1763 51138.53330    77.29186    76.98568     0.09638
      1764 51179.44412    90.95167    89.92612     0.08197
      1765 51220.38768   104.88365   103.04198     0.07919
      1766 51261.36399   114.29064   113.47563     0.07051
      1767 51302.37308   114.96466   105.84874     0.07438
      1768 51343.41498   106.89462   105.88245     0.07771
      1769 51384.48971    94.12482    93.35030     0.08504
      1770 51425.59730    81.46226    78.01606     0.09098
      1771 51466.73778    72.10956    70.98815     0.09464
      1772 51507.91117    66.99306    74.63754     0.09541
      1773 51549.11750    65.24229    71.99988     0.09437
      1774 51590.35679    65.01560    63.72925     0.09420
      1775 51631.62908    64.51029    65.78977     0.10330
      1776 51672.93438    62.84510    60.79652     0.10004
      1777 51714.27273    60.25315    60.94628     0.10259
      1778 51755.64415    57.46037    56.43642     0.10475
      1779 51797.04866    55.08092    52.40556     0.10810
      1780 51838.48630    53.38319    56.27207     0.10794
      1781 51879.95709    52.33119    52.10062     0.10502
      1782 51921.46106    51.74387    50.55115     0.10647
      1783 51962.99822    51.43436    51.41984     0.10842
      1784 52004.56862    51.27203    53.65021     0.10448
      1785 52046.17228    51.18479    53.84111     0.11545
      1786 52087.80922    51.13953    48.68506     0.10210
      1787 52129.47946    51.12669    52.54745     0.10424
      1788 52171.18305    51.14847    51.28694     0.10551
      1789 52212.91999    51.22751    45.67629     0.10584
      1790 52254.69033    51.42382    51.22126     0.10821
      1791 52296.49408    51.85211    49.93116     0.11006
      1792 52338.33128    52.68556    49.91473     0.10815
      1793 52380.20194    54.12112    49.00218     0.09967
      1794 52422.10610    56.22886    54.93743     0.10326
      1795 52464.04379    58.83981    59.25958     0.10244
      1796 52506.01502    61.46408    48.13358     0.09940
      1797 52548.01983    63.39103    62.55940     0.09180
      1798 52590.05825    64.09775    57.04683     0.09142
      1799 52632.13030    63.68391    56.99361     0.08926
      1800 52674.23600    62.67019    61.28682     0.09893
      1801 52716.37539    61.45532    58.08229     0.10303
      1802 52758.54849    60.08944    62.27325     0.10178
      1803 52800.75533    58.49681    53.25545     0.10473
      1804 52842.99593    56.77344    56.14405     0.09467
      1805 52885.27033    55.15736    57.84286     0.09758
      1806 52927.57855    53.87407    56.15471     0.09662
      1807 52969.92061    53.04444    53.92510     0.09609
      1808 53012.29655    52.76538    49.98333     0.09247
      1809 53054.70638    53.13753    55.08817     0.09990
      1810 53097.15015    54.31160    46.75016     0.09669
      1811 53139.62787    56.47877    51.36112     0.09564
      1812 53182.13957    59.70269    67.26550     0.08854
      1813 53224.68528    63.68061    66.38362     0.09233
      1814 53267.26503    67.60234    68.86929     0.08942
      1815 53309.87884    70.26546    72.90811     0.08012
      1816 53352.52675    70.66509    75.96718     0.08223
      1817 53395.20877    68.74697    79.67235     0.08267
      1818 53437.92493    65.34591    69.35718     0.08231
      1819 53480.67527    61.53857    62.13061     0.08454
      1820 53523.45981    58.17106    59.55008     0.08908
      1821 53566.27858    55.66365    58.90907     0.09371
      1822 53609.13161    54.05208    58.57163     0.08776
      1823 53652.01891    53.16292    55.56995     0.09023
      1824 53694.94053    52.78292    50.61861     0.09443
      1825 53737.89648    52.75147    55.85759     0.09659
      1826 53780.88680    52.99044    57.46363     0.09186
      1827 53823.91150    53.44362    58.03839     0.09361
      1828 53866.97063    54.06627    49.88552     0.09307
      1829 53910.06421    54.85354    53.71364     0.09569
      1830 53953.19226    55.89203    56.51006     0.09225
      1831 53996.35482    57.50495    59.53053     0.08684
      1832 54039.55190    60.35986    59.06328     0.08458
      1833 54082.78354    65.32217    71.69102     0.08128
      1834 54126.04977    72.93930    72.16238     0.07657
      1835 54169.35061    82.80773    78.60785     0.07745
      1836 54212.68609    93.10252    86.67692     0.07409
      1837 54256.05624   100.70226   100.36771     0.06882
      1838 54299.46108   102.54088    98.29273     0.06332
      1839 54342.90065    97.90190    89.91401     0.06874
      1840 54386.37497    88.93896    89.80085     0.06939
      1841 54429.88407    78.85468    81.01427     0.07466
      1842 54473.42798    70.19340    70.93874     0.07866
      1843 54517.00672    64.20668    59.77170     0.08038
      1844 54560.62033    61.02941    60.49129     0.08043
      1845 54604.26882    60.26712    61.98421     0.07880
      1846 54647.95224    61.65842    61.86129     0.07906
      1847 54691.67060    65.44896    62.79761     0.07897
      1848 54735.42394    72.44869    68.76076     0.07221
      1849 54779.21227    83.56907    82.42278     0.06995
      1850 54823.03564    98.82094   102.35515     0.06028
      1851 54866.89407   116.28814   115.89512     0.05659
      1852 54910.78759   131.74508   130.03961     0.05301
      1853 54954.71622   139.72800   139.03191     0.04729
      1854 54998.67999   136.79036   143.58084     0.04776
      1855 55042.67894   124.29082   120.35327     0.05267
      1856 55086.71308   106.98196   111.62865     0.05793
      1857 55130.78245    89.76933    93.31003     0.06338
      1858 55174.88708    75.80485    86.05286     0.06714
      1859 55219.02698    66.12594    63.98311     0.07392
      1860 55263.20221    60.24602    69.66697     0.07446
      1861 55307.41277    57.05103    54.12458     0.08127
      1862 55351.65870    55.47775    55.68260     0.08166
      1863 55395.94003    54.79388    52.88899     0.08224
      1864 55440.25678    54.58619    54.66355     0.07905
      1865 55484.60898    54.63690    56.36648     0.08750
      1866 55528.99667    54.80834    51.05839     0.08455
      1867 55573.41987    54.97887    56.54123     0.08255
      1868 55617.87860    55.04203    53.76019     0.08062
      1869 55662.37291    54.95687    51.52050     0.08117
      1870 55706.90280    54.77594    57.25109     0.08425
      1871 55751.46833    54.60782    49.76070     0.08529
      1872 55796.06950    54.57650    53.57931     0.07666
      1873 55840.70636    54.81437    55.86800     0.07861
      1874 55885.37892    55.47392    57.07906     0.07859
      1875 55930.08723    56.72732    57.10488     0.08152
      1876 55974.83129    58.72829    58.02865     0.07488
      1877 56019.61116    61.54936    60.66904     0.07496
      1878 56064.42685    65.16401    59.77929     0.07462
      1879 56109.27839    69.55790    75.30978     0.07046
      1880 56154.16581    75.04117    71.13695     0.07049
      1881 56199.08915    82.67157    79.07486     0.06299
      1882 56244.04842    94.24727    89.78007     0.05802
      1883 56289.04366   111.21910   118.45909     0.05193
      1884 56334.07489   133.04325   131.96667     0.04742
      1885 56379.14215   156.02377   163.94480     0.04072
      1886 56424.24546   173.48107   170.01809     0.03999
      1887 56469.38486   178.41892   178.45693     0.04008
      1888 56514.56037   168.40131   168.77208     0.04111
      1889 56559.77202   147.39389   151.34635     0.04104
      1890 56605.01983   122.32589   124.75208     0.04766
      1891 56650.30385    99.19092   112.10386     0.05434
      1892 56695.62409    81.30686    87.76000     0.05823
      1893 56740.98059    69.32496    82.27952     0.06952
      1894 56786.37338    62.20900    62.21771     0.06712
      1895 56831.80248    58.37451    60.17245     0.07722
      1896 56877.26792    56.45015    54.68317     0.07788
      1897 56922.76973    55.54224    60.37127     0.07419
      1898 56968.30795    55.19922    54.39985     0.08108
      1899 57013.88259    55.29367    56.66158     0.07751
      1900 57059.49370    55.96215    51.84164     0.06994
      1901 57105.14130    57.56651    60.36422     0.07611
      1902 57150.82541    60.64796    61.14571     0.07218
      1903 57196.54607    65.75249    57.36032     0.07225
      1904 57242.30331    73.08701    65.14273     0.06786
      1905 57288.09715    82.10711    80.59340     0.06572
      1906 57333.92763    91.24757    93.27207     0.06027
      1907 57379.79477    98.06388    94.95804     0.05601
      1908 57425.69860   100.20023    92.93759     0.05655
      1909 57471.63916    97.02146    95.46704     0.05808
      1910 57517.61647    90.10073    87.31931     0.05914
      1911 57563.63057    81.97420    77.96082     0.06028
      1912 57609.68147    74.83553    76.84567     0.06081
      1913 57655.76922    70.07038    74.80659     0.06198
      1914 57701.89383    68.47482    66.79613     0.06654
      1915 57748.05535    70.83272    72.98885     0.06060
      1916 57794.25379    78.27843    82.01688     0.05823
      1917 57840.48919    91.96958    95.35575     0.05710
      1918 57886.76159   112.08724   112.11635     0.04909
      1919 57933.07100   136.63565   132.26150     0.04536
      1920 57979.41745   160.73450   164.93845     0.03891
      1921 58025.80099   177.20409   160.38664     0.03801
      1922 58072.22163   179.71813   173.75127     0.03690
      1923 58118.67940   167.26968   157.39937     0.04044
      1924 58165.17435   144.76640   143.53427     0.04285
      1925 58211.70649   119.20572   115.28112     0.04759
      1926 58258.27585    96.20306    95.76527     0.05633
      1927 58304.88247    78.66038    83.44068     0.06198
      1928 58351.52638    66.96281    74.68292     0.06616
      1929 58398.20760    59.97802    58.05209     0.07362
      1930 58444.92617    56.13119    57.49262     0.07709
      1931 58491.68211    54.08682    61.59303     0.06976
      1932 58538.47545    52.96875    52.30682     0.07511
      1933 58585.30623    52.29600    50.23020     0.07119
      1934 58632.17448    51.83623    51.69141     0.07388
      1935 58679.08022    51.48627    55.80130     0.07358
      1936 58726.02348    51.20145    49.64572     0.07077
      1937 58773.00430    50.96049    55.49527     0.07291
      1938 58820.02270    50.73848    46.64691     0.07311
      1939 58867.07872    50.54656    47.78283     0.07588
      1940 58914.17239    50.38233    48.75066     0.07423
      1941 58961.30372    50.23606    53.56182     0.07784
      1942 59008.47277    50.10446    50.10380     0.07326
      1943 59055.67954    49.98409    58.15246     0.06464
      1944 59102.92409    49.87294    51.36906     0.06730
      1945 59150.20643    49.76988    47.73762     0.07723
      1946 59197.52659    49.67387    48.07767     0.07474
      1947 59244.88461    49.58403    46.45113     0.07289
      1948 59292.28052    49.49967    55.99729     0.07453
      1949 59339.71435    49.42022    43.43799     0.06893
      1950 59387.18612    49.34526    50.57880     0.07261
      1951 59434.69587    49.27449    56.47260     0.07318
      1952 59482.24362    49.20772    56.13354     0.07279
      1953 59529.82942    49.14483    49.16378     0.07168
      1954 59577.45328    49.08692    51.59809     0.07105
      1955 59625.11524    49.03572    47.83940     0.07726
      1956 59672.81534    48.99548    41.98122     0.07204
      1957 59720.55359    48.97498    54.19679     0.07284
      1958 59768.33003    48.98934    50.46383     0.07267
      1959 59816.14470    49.05967    51.37174     0.07262
      1960 59863.99761    49.20785    51.12858     0.06884
      1961 59911.88881    49.44518    49.95764     0.06526
      1962 59959.81832    49.75748    44.57435     0.06936
      1963 60007.78617    50.09364    50.33650     0.07044
      1964 60055.79240    50.36570    47.88401     0.07135
      1965 60103.83704    50.47337    56.56208     0.07554
      1966 60151.92011    50.36136    52.88967     0.07322
      1967 60200.04164    50.05863    44.88988     0.06988
      1968 60248.20168    49.65873    46.09733     0.06718
      1969 60296.40024    49.25449    55.15417     0.07152
      1970 60344.63736    48.90957    47.54730     0.07064
      1971 60392.91307    48.65085    51.18983     0.07087
      1972 60441.22740    48.47536    48.84737     0.07134
      1973 60489.58038    48.35635    47.16398     0.06727
      1974 60537.97204    48.26717    54.43004     0.06937
      1975 60586.40242    48.22131    48.15377     0.07108
      1976 60634.87154    48.19483    41.06629     0.06825
      1977 60683.37944    48.17911    49.38406     0.07178
      1978 60731.92615    48.17121    45.17710     0.06247
      1979 60780.51169    48.17045    49.11878     0.06788
      1980 60829.13610    48.17730    51.03924     0.07188
      1981 60877.79940    48.19314    57.35045     0.06881
      1982 60926.50164    48.22070    42.97920     0.06577
      1983 60975.24285    48.26577    53.46802     0.07230
      1984 61024.02304    48.34089    45.79641     0.07071
      1985 61072.84226    48.47272    52.44706     0.06713
      1986 61121.70053    48.71401    56.05371     0.06518
      1987 61170.59789    49.15865    44.05496     0.06770
      1988 61219.53437    49.95301    57.58147     0.06635
      1989 61268.51000    51.28918    44.40529     0.06695
      1990 61317.52481    53.36217    48.11392     0.05909
      1991 61366.57883    56.28000    54.57076     0.05950
      1992 61415.67209    59.93960    61.17986     0.06144
      1993 61464.80463    63.92326    66.02753     0.05923
      1994 61513.97647    67.50653    61.67935     0.05983
      1995 61563.18765    69.81550    72.60031     0.05679
      1996 61612.43820    70.12058    61.99562     0.05632
      1997 61661.72815    68.28047    68.48685     0.05643
      1998 61711.05753    64.90117    61.92008     0.05590
      1999 61760.42638    60.92773    64.07081     0.05911
      2000 61809.83472    57.19656    52.84783     0.06312
      2001 61859.28259    54.21392    62.58879     0.05747
      2002 61908.77002    52.14143    56.01192     0.06564
      2003 61958.29703    50.89488    53.15744     0.05757
      2004 62007.86367    50.28777    58.97362     0.06419
      2005 62057.46996    50.15309    48.43180     0.06231
      2006 62107.11594    50.42059    47.96366     0.06653
      2007 62156.80163    51.15391    45.26984     0.05999
      2008 62206.52707    52.55585    54.99056     0.06247
      2009 62256.29229    54.93037    59.03250     0.05919
      2010 62306.09733    58.55752    58.64540     0.05727
      2011 62355.94220    63.58354    60.82704     0.05765
      2012 62405.82696    69.75104    67.62959     0.05036
      2013 62455.75162    76.27665    82.04860     0.04836
      2014 62505.71622    81.91694    83.30072     0.04915
      2015 62555.72079    85.36563    98.41064     0.04227
      2016 62605.76537    86.14216    83.19819     0.04428
      2017 62655.84998    85.35585    91.60018     0.04549
      2018 62705.97466    85.55024    88.30681     0.04530
      2019 62756.13944    89.98517    87.63402     0.04362
      2020 62806.34435   101.85228   101.07120     0.03838
      2021 62856.58943   123.32253   124.46172     0.03630
      2022 62906.87470   154.38372   160.52132     0.03134
      2023 62957.20020   191.80130   205.59048     0.02510
      2024 63007.56596   228.72577   236.63366     0.02390
      2025 63057.97201   255.61135   263.30182     0.02100
      2026 63108.41839   263.63711   258.45845     0.02187
      2027 63158.90513   250.06984   241.54206     0.02266
      2028 63209.43225   220.08967   221.26220     0.02466
      2029 63259.99980   182.81558   195.19728     0.02629
      2030 63310.60780   146.58487   147.29871     0.03384
      2031 63361.25628   116.58529   126.24570     0.03501
      2032 63411.94529    94.50155   103.07004     0.04207
      2033 63462.67484    79.47315    70.55949     0.05003
      2034 63513.44498    69.59734    68.27832     0.05180
      2035 63564.25574    63.08923    75.84040     0.05096
      2036 63615.10714    58.66850    65.31194     0.05954
      2037 63665.99923    55.56600    54.93232     0.05229
      2038 63716.93203    53.38672    54.17632     0.05683
      2039 63767.90557    51.89664    44.81096     0.05464
      2040 63818.91990    50.93237    51.41816     0.05675
      2041 63869.97503    50.37414    49.94236     0.05692
      2042 63921.07101    50.14532    49.39430     0.05770
      2043 63972.20787    50.20610    48.97496     0.05532
      2044 64023.38564    50.53058    51.63461     0.05993
      2045 64074.60435    51.07307    46.45493     0.06219
      2046 64125.86403    51.73783    46.09273     0.05682
      2047 64177.16472    52.36606    51.17447     0.05634
      2048 64228.50645    52.75538    46.31436     0.05930
      2049 64279.88926    52.73514    50.13844     0.05380
      2050 64331.31317    52.27064    50.41360     0.05480
      2051 64382.77822    51.48225    51.44586     0.06075
      2052 64434.28444    50.55978    41.66192     0.05675
      2053 64485.83187    49.67447    45.93385     0.05813
      2054 64537.42053    48.93710    47.97978     0.05880
      2055 64589.05047    48.39136    46.75361     0.06087
      2056 64640.72171    48.02886    50.43847     0.05400
      2057 64692.43429    47.81284    46.09806     0.05651
      2058 64744.18824    47.69915    46.34762     0.05619
      2059 64795.98359    47.64643    50.55287     0.05244
      2060 64847.82037    47.62029    54.76341     0.05689
      2061 64899.69863    47.64011    44.92272     0.05670
      2062 64951.61839    47.63955    48.13835     0.05957
      2063 65003.57968    47.59083    51.69669     0.05639
      2064 65055.58255    47.50601    53.16777     0.05738
      2065 65107.62701    47.41019    45.97381     0.05623
      2066 65159.71312    47.31751    40.59709     0.06180
      2067 65211.84089    47.23581    44.35614     0.05594
      2068 65264.01036    47.16785    44.44373     0.05395
      2069 65316.22157    47.11273    59.69442     0.05880
      2070 65368.47454    47.06764    48.42516     0.05574
      2071 65420.76932    47.02946    46.60544     0.05887
      2072 65473.10594    46.99559    48.09968     0.05595
      2073 65525.48442    46.96429    47.09328     0.05826
      2074 65577.90481    46.93450    41.60126     0.05320
      2075 65630.36714    46.90564    48.08674     0.05541
      2076 65682.87143    46.87742    45.19514     0.05509
      2077 65735.41773    46.84964    43.98516     0.05621
      2078 65788.00606    46.82222    48.41184     0.05691
      2079 65840.63647    46.79507    41.36158     0.06141
      2080 65893.30897    46.76814    39.12773     0.05590
      2081 65946.02362    46.74140    46.17034     0.05491
      2082 65998.78044    46.71482    39.84278     0.05500
      2083 66051.57946    46.68838    39.01303     0.05325
      2084 66104.42073    46.66208    53.25405     0.05533
      2085 66157.30426    46.63593    51.44837     0.05638
      2086 66210.23011    46.60992    52.58087     0.05361
      2087 66263.19829    46.58362    37.35386     0.05150
      2088 66316.20885    46.55748    49.13096     0.05321
      2089 66369.26182    46.53109    46.60866     0.05300
      2090 66422.35723    46.50263    43.62412     0.05084
      2091 66475.49511    46.47738    52.08951     0.05225
      2092 66528.67551    46.45329    48.71400     0.04928
      2093 66581.89845    46.42998    41.64542     0.04990
      2094 66635.16397    46.40750    45.13081     0.05096
      2095 66688.47210    46.38604    44.85579     0.05344
      2096 66741.82288    46.36588    48.30293     0.05557
      2097 66795.21634    46.34737    52.70472     0.05053
      2098 66848.65251    46.33109    45.63941     0.05192
      2099 66902.13143    46.31801    48.95259     0.05405
      2100 66955.65314    46.31012    48.81719     0.04969
      2101 67009.21766    46.31164    51.19240     0.05538
      2102 67062.82503    46.33133    48.16447     0.05411
      2103 67116.47529    46.38623    45.26770     0.04943
      2104 67170.16847    46.50614    53.74919     0.05066
      2105 67223.90461    46.73670    42.44602     0.04841
      2106 67277.68373    47.13660    44.97407     0.05035
      2107 67331.50588    47.76429    50.75052     0.04950
      2108 67385.37108    48.65233    47.91774     0.05090
      2109 67439.27938    49.77472    53.16666     0.04582
      2110 67493.23080    51.04150    46.00604     0.04701
      2111 67547.22539    52.21811    56.12571     0.04828
      2112 67601.26317    53.03381    47.52809     0.04703
      2113 67655.34418    53.24757    53.85316     0.04674
      2114 67709.46845    52.79269    50.88852     0.04735
      2115 67763.63603    51.81574    49.83037     0.04899
      2116 67817.84694    50.57812    53.62049     0.04939
      2117 67872.10122    49.33209    46.40342     0.04511
      2118 67926.39890    48.25415    51.55731     0.05064
      2119 67980.74002    47.42806    44.84387     0.04908
      2120 68035.12461    46.85874    47.64566     0.04769
      2121 68089.55271    46.48340    44.06571     0.04383
      2122 68144.02435    46.25060    43.99463     0.05472
      2123 68198.53957    46.14707    39.08717     0.05068
      2124 68253.09840    46.11036    39.82850     0.04741
      2125 68307.70088    46.11360    48.04547     0.04941
      2126 68362.34704    46.14508    47.25446     0.04797
      2127 68417.03692    46.20213    44.95685     0.04951
      2128 68471.77055    46.31205    48.67839     0.05222
      2129 68526.54796    46.46204    36.06912     0.04267
      2130 68581.36920    46.63265    48.37137     0.04662
      2131 68636.23430    46.84965    46.96510     0.04773
      2132 68691.14328    47.11968    49.19027     0.04974
      2133 68746.09620    47.44117    56.48395     0.04533
      2134 68801.09308    47.80707    48.26697     0.04886
      2135 68856.13395    48.21188    49.21958     0.04417
      2136 68911.21886    48.67070    51.76835     0.04849
      2137 68966.34783    49.25813    47.36723     0.04211
      2138 69021.52091    50.16113    53.43493     0.04207
      2139 69076.73813    51.74598    52.95096     0.04981
      2140 69131.99952    54.63024    49.58879     0.04468
      2141 69187.30512    59.73129    66.42083     0.04317
      2142 69242.65496    68.21379    64.18260     0.03782
      2143 69298.04909    81.24683    77.09858     0.03468
      2144 69353.48753    99.53536   100.39313     0.02867
      2145 69408.97032   122.71436   123.97190     0.02678
      2146 69464.49749   148.81826   153.23416     0.02215
      2147 69520.06909   174.06499   172.61584     0.02187
      2148 69575.68514   193.22925   204.92871     0.01871
      2149 69631.34569   201.14709   205.78039     0.01912
      2150 69687.05077   195.40649   195.60547     0.01958
      2151 69742.80041   177.92755   173.96459     0.02117
      2152 69798.59465   153.55141   149.04951     0.02395
      2153 69854.43353   127.51702   132.28061     0.02345
      2154 69910.31707   103.86404   110.45193     0.02854
      2155 69966.24533    84.86976    91.50306     0.03142
      2156 70022.21832    71.14587    68.06009     0.03636
      2157 70078.23610    62.13088    58.92591     0.03386
      2158 70134.29869    56.70893    67.52637     0.03959
      2159 70190.40613    53.71541    67.87598     0.03814
      2160 70246.55845    52.21778    55.47470     0.04026
      2161 70302.75570    51.59217    46.79299     0.03845
      2162 70358.99790    51.48202    44.77839     0.03983
      2163 70415.28510    51.71818    51.74221     0.04391
      2164 70471.61733    52.26411    51.93185     0.04145
      2165 70527.99462    53.20154    54.14955     0.03861
      2166 70584.41702    54.77504    47.21396     0.03750
      2167 70640.88455    57.50602    53.90754     0.04094
      2168 70697.39726    62.37221    64.52011     0.03864
      2169 70753.95518    71.00764    72.67698     0.03641
      2170 70810.55834    85.80462    88.18644     0.03226
      2171 70867.20679   109.72430   115.84552     0.02607
      2172 70923.90055   145.62067   144.35836     0.02126
      2173 70980.63967   195.03564   188.78964     0.01804
      2174 71037.42419   256.71756   250.00181     0.01493
      2175 71094.25412   325.38227   330.29165     0.01188
      2176 71151.12953   391.26755   415.33032     0.00974
      2177 71208.05043   441.11980   433.78757     0.00935
      2178 71265.01687   461.93435   477.27968     0.00874
      2179 71322.02889   447.51638   432.15311     0.00923
      2180 71379.08651   402.42806   397.08500     0.01012
      2181 71436.18978   338.71884   324.07591     0.01168
      2182 71493.33873   269.72543   262.43419     0.01406
      2183 71550.53340   205.99720   203.52664     0.01718
      2184 71607.77383   153.76744   168.75132     0.01894
      2185 71665.06005   115.05492   121.42050     0.02195
      2186 71722.39209    88.76944    91.96541     0.02639
      2187 71779.77001    72.20789    88.73449     0.02677
      2188 71837.19382    62.35623    69.77086     0.02915
      2189 71894.66358    56.67780    58.64063     0.03531
      2190 71952.17931    53.38524    52.21131     0.03808
      2191 72009.74105    51.37787    44.62049     0.03654
      2192 72067.34885    50.04748    50.93064     0.03466
      2193 72125.00273    49.08431    56.11275     0.03622
      2194 72182.70273    48.37176    50.76883     0.03513
      2195 72240.44889    47.80613    49.54147     0.03509
      2196 72298.24125    47.31350    58.11154     0.03707
      2197 72356.07984    46.89748    55.57772     0.03283
      2198 72413.96471    46.54741    41.92167     0.03675
      2199 72471.89588    46.25338    49.63093     0.03741
      2200 72529.87339    46.00732    49.32178     0.03390
      2201 72587.89729    45.80294    52.34560     0.03575
      2202 72645.96761    45.63526    46.24815     0.03822
      2203 72704.08438    45.50047    46.86644     0.03904
      2204 72762.24765    45.39567    42.63509     0.03699
      2205 72820.45745    45.31875    42.03400     0.03889
      2206 72878.71382    45.26829    45.83086     0.03543
      2207 72937.01679    45.24348    34.75302     0.03553
      2208 72995.36640    45.24409    41.79719     0.03929
      2209 73053.76269    45.27051    47.25975     0.03366
      2210 73112.20570    45.32373    34.13668     0.04045
      2211 73170.69547    45.40544    54.74681     0.03537
      2212 73229.23202    45.51813    46.11474     0.03988
      2213 73287.81541    45.66528    38.52187     0.03407
      2214 73346.44566    45.85097    56.58273     0.03341
      2215 73405.12282    46.08288    41.42077     0.03548
      2216 73463.84692    46.37370    47.82927     0.03546
      2217 73522.61800    46.74286    47.37866     0.03646
      2218 73581.43609    47.25297    46.31998     0.03696
      2219 73640.30124    47.95582    51.24367     0.03357
      2220 73699.21348    49.01190    55.03133     0.03530
      2221 73758.17285    50.71544    49.55624     0.03179
      2222 73817.17939    53.58857    58.08011     0.03126
      2223 73876.23313    58.42846    71.77855     0.02938
      2224 73935.33412    66.31356    65.67119     0.02758
      2225 73994.48239    78.46863    83.60366     0.02745
      2226 74053.67797    95.93775   100.82921     0.02503
      2227 74112.92091   119.08372   105.48197     0.02387
      2228 74172.21125   147.03816   143.06694     0.01871
      2229 74231.54902   177.29545   172.60040     0.01577
      2230 74290.93426   205.63163   194.98012     0.01614
      2231 74350.36701   226.58967   212.89852     0.01397
      2232 74409.84730   235.03483   205.02404     0.01449
      2233 74469.37518   228.68984   203.16966     0.01493
      2234 74528.95068   209.53730   186.73856     0.01523
      2235 74588.57384   182.50236   150.87063     0.01673
      2236 74648.24470   153.08624   132.97588     0.01958
      2237 74707.96329   125.80869   129.64834     0.01981
      2238 74767.72966   103.64865    96.08169     0.02126
      2239 74827.54385    88.11419    99.91770     0.02322
      2240 74887.40588    79.69248    88.39794     0.02520
      2241 74947.31581    78.45064    87.71437     0.02417
      2242 75007.27366    84.49327   101.39219     0.02318
      2243 75067.27948    98.05781   108.24414     0.02137
      2244 75127.33330   119.19275   126.46673     0.02081
      2245 75187.43517   147.14891   146.87696     0.01776
      2246 75247.58512   179.73804   182.96148     0.01508
      2247 75307.78319   212.96323   226.10872     0.01273
      2248 75368.02941   241.12621   225.51883     0.01288
      2249 75428.32384   257.86117   229.39602     0.01256
      2250 75488.66649   258.57536   234.85481     0.01219
      2251 75549.05743   243.06605   224.17827     0.01299
      2252 75609.49667   215.54295   196.75394     0.01475
      2253 75669.98427   182.14067   178.31213     0.01469
      2254 75730.52026   148.57186   147.93061     0.01682
      2255 75791.10467   118.94020   114.85166     0.01902
      2256 75851.73756    95.33952   108.34567     0.01919
      2257 75912.41895    78.15090    90.63070     0.02257
      2258 75973.14888    66.58420    72.37094     0.02483
      2259 76033.92740    59.30974    64.36068     0.02539
      2260 76094.75454    54.96722    58.42537     0.02584
      2261 76155.63035    52.45135    56.44742     0.02487
      2262 76216.55485    50.99282    43.62581     0.02655
      2263 76277.52810    50.11244    58.68680     0.02963
      2264 76338.55012    49.54674    49.42840     0.03076
      2265 76399.62096    49.15798    44.38364     0.02848
      2266 76460.74066    48.87760    36.59077     0.02676
      2267 76521.90925    48.67113    48.21712     0.02649
      2268 76583.12678    48.52022    36.10410     0.02891
      2269 76644.39328    48.41374    42.34133     0.02765
      2270 76705.70879    48.34420    48.29954     0.02548
      2271 76767.07336    48.30597    60.46511     0.03269
      2272 76828.48702    48.29474    49.32762     0.03204
      2273 76889.94981    48.30706    42.19755     0.02534
      2274 76951.46177    48.34015    48.17687     0.02487
      2275 77013.02294    48.39171    50.65707     0.02995
      2276 77074.63335    48.45989    45.48214     0.02728
      2277 77136.29306    48.54315    51.76258     0.02861
      2278 77198.00210    48.64021    43.52907     0.02734
      2279 77259.76050    48.75003    46.40570     0.02488
      2280 77321.56831    48.87174    45.73260     0.02358
      2281 77383.42556    49.00464    52.79284     0.02670
      2282 77445.33230    49.14815    51.35801     0.02622
      2283 77507.28857    49.30184    53.66153     0.02847
      2284 77569.29440    49.45168    48.63188     0.02446
      2285 77631.34983    49.53972    49.74256     0.02668
      2286 77693.45491    49.70664    51.09487     0.02973
      2287 77755.60968    49.89828    44.61232     0.02500
      2288 77817.81416    50.10261    47.20303     0.02885
      2289 77880.06842    50.31928    46.76951     0.02879
      2290 77942.37247    50.54777    54.79169     0.02550
      2291 78004.72637    50.78877    54.71804     0.02837
      2292 78067.13015    51.04438    45.53056     0.02647
      2293 78129.58385    51.31582    55.58099     0.02550
      2294 78192.08752    51.60352    63.50401     0.02387
      2295 78254.64119    51.90668    49.34720     0.02433
      2296 78317.24490    52.22305    60.23612     0.02736
      2297 78379.89870    52.54911    60.55515     0.02514
      2298 78442.60262    52.88069    48.49401     0.02347
      2299 78505.35670    53.21475    46.46131     0.02514
      2300 78568.16099    53.55167    42.28425     0.02056
      2301 78631.01552    53.89618    54.94797     0.02505
      2302 78693.92033    54.25600    44.62836     0.02278
      2303 78756.87546    54.63982    56.90901     0.02300
      2304 78819.88096    55.05618    46.90787     0.02440
      2305 78882.93687    55.51324    50.16146     0.02399
      2306 78946.04322    56.01940    50.60769     0.02245
      2307 79009.20005    56.58478    61.29364     0.02196
      2308 79072.40741    57.22459    49.33842     0.02308
      2309 79135.66534    57.96559    64.07459     0.02123
      2310 79198.97387    58.85912    61.89730     0.02254
      2311 79262.33305    60.00538    61.59962     0.02134
      2312 79325.74292    61.59528    51.21788     0.02194
      2313 79389.20351    63.98045    57.72778     0.01970
      2314 79452.71487    67.74320    77.55923     0.01946
      2315 79516.27705    73.77714    60.35346     0.01904
      2316 79579.89007    83.31436    78.78007     0.01917
      2317 79643.55398    97.82707   105.76138     0.01632
      2318 79707.26882   118.75249   117.67155     0.01514
      2319 79771.03464   147.02371   152.91680     0.01245
      2320 79834.85147   182.48069   179.68029     0.01126
      2321 79898.71935   223.32284   234.22213     0.01065
      2322 79962.63832   265.78677   294.58224     0.00876
      2323 80026.60843   304.20470   309.89729     0.00797
      2324 80090.62972   331.72111   351.34706     0.00752
      2325 80154.70222   342.20380   352.22529     0.00729
      2326 80218.82599   333.07557   320.79401     0.00813
      2327 80283.00105   306.76970   294.48786     0.00786
      2328 80347.22745   269.24648   274.31229     0.00873
      2329 80411.50523   227.30253   228.46176     0.00987
      2330 80475.83443   186.70042   207.88845     0.01142
      2331 80540.21510   151.35954   168.21122     0.01268
      2332 80604.64727   123.21601   126.86002     0.01416
      2333 80669.13099   102.51378   109.48234     0.01754
      2334 80733.66630    88.35414    97.88362     0.01897
      2335 80798.25323    79.30260    86.05361     0.02155
      2336 80862.89183    73.88140    64.33396     0.02111
      2337 80927.58214    70.86955    63.51747     0.02271
      2338 80992.32421    69.41679    56.82097     0.02054
      2339 81057.11807    69.04548    56.07691     0.02301
      2340 81121.96376    69.62281    60.64160     0.02140
      2341 81186.86133    71.31849    77.77215     0.02100
      2342 81251.81082    74.58510    74.08256     0.02111
      2343 81316.81227    80.08874    77.57657     0.02026
      2344 81381.86572    88.79517    84.21914     0.02084
      2345 81446.97122   101.57973   105.89569     0.01766
      2346 81512.12879   119.06981   129.74829     0.01690
      2347 81577.33850   141.27800   143.15857     0.01458
      2348 81642.60037   167.25346   178.85326     0.01255
      2349 81707.91445   194.85526   212.00345     0.01118
      2350 81773.28078   220.73622   231.55944     0.01047
      2351 81838.69940   240.67112   242.48976     0.01006
      2352 81904.17036   250.52450   280.77390     0.00876
      2353 81969.69370   247.91167   254.60761     0.01012
      2354 82035.26945   233.47581   233.09410     0.01063
      2355 82100.89767   210.47636   223.68872     0.01075
      2356 82166.57839   183.20012   199.86841     0.01155
      2357 82232.31165   155.59387   156.41731     0.01406
      2358 82298.09750   130.57932   132.92862     0.01543
      2359 82363.93598   109.84766   113.45053     0.01822
      2360 82429.82713    93.92249    84.89152     0.01813
      2361 82495.77099    82.53361    76.27079     0.02164
      2362 82561.76760    74.92410    75.12905     0.02252
      2363 82627.81702    70.15369    62.97442     0.02351
      2364 82693.91927    67.40119    70.56352     0.02408
      2365 82760.07441    66.06524    66.80113     0.02239
      2366 82826.28247    65.77842    51.74025     0.02442
      2367 82892.54349    66.35995    60.77305     0.02391
      2368 82958.85753    67.73804    59.79958     0.02302
      2369 83025.22461    69.86506    64.16955     0.02118
      2370 83091.64479    72.64101    66.12142     0.02069
      2371 83158.11811    75.85700    74.07800     0.02106
      2372 83224.64460    79.16644    72.62700     0.02215
      2373 83291.22432    82.09025    83.33416     0.01944
      2374 83357.85730    84.07420    78.42973     0.02001
      2375 83424.54358    84.63355    78.38049     0.01943
      2376 83491.28322    83.55885    84.59893     0.02284
      2377 83558.07625    81.02384    73.13673     0.01928
      2378 83624.92271    77.48576    82.96788     0.01787
      2379 83691.82265    73.48793    73.01088     0.02291
      2380 83758.77610    69.51222    65.21130     0.02082
      2381 83825.78312    65.90969    54.62415     0.02121
      2382 83892.84375    62.88185    47.82117     0.02197
      2383 83959.95803    60.49403    61.44647     0.02136
      2384 84027.12599    58.71065    47.89617     0.02272
      2385 84094.34769    57.43995    67.36222     0.02365
      2386 84161.62317    56.57545    46.90300     0.02550
      2387 84228.95247    56.02536    41.46011     0.02421
      2388 84296.33563    55.72680    53.68505     0.02681
      2389 84363.77270    55.64646    52.92141     0.02573
      2390 84431.26372    55.77147    54.11941     0.02525
      2391 84498.80873    56.09499    60.07562     0.02771
      2392 84566.40778    56.60077    55.63992     0.02295
      2393 84634.06090    57.25035    63.57937     0.02516
      2394 84701.76815    57.97540    45.56189     0.02252
      2395 84769.52957    58.67688    63.19824     0.02452
      2396 84837.34519    59.23446    53.23241     0.02291
      2397 84905.21507    59.53528    52.89647     0.02278
      2398 84973.13924    59.51834    65.72416     0.02373
      2399 85041.11775    59.19914    65.86622     0.02403
      2400 85109.15064    58.64626    59.49097     0.02361
      2401 85177.23796    57.93389    54.62069     0.02566
      2402 85245.37975    57.11043    55.30926     0.02364
      2403 85313.57606    56.19670    56.13995     0.02487
      2404 85381.82692    55.26590    54.33299     0.02497
      2405 85450.13238    54.28190    50.86580     0.02349
      2406 85518.49249    53.26832    47.20165     0.02415
      2407 85586.90728    52.29065    57.60323     0.02532
      2408 85655.37681    51.39855    34.40283     0.02435
      2409 85723.90111    50.61711    42.27147     0.02280
      2410 85792.48023    49.95535    61.10690     0.02780
      2411 85861.11421    49.40940    49.91972     0.02456
      2412 85929.80310    48.96619    50.98498     0.02639
      2413 85998.54695    48.60773    49.49182     0.02670
      2414 86067.34578    48.31542    50.01335     0.02425
      2415 86136.19966    48.07334    43.78979     0.02375
      2416 86205.10862    47.87036    44.43895     0.02614
      2417 86274.07271    47.70111    40.40176     0.02353
      2418 86343.09197    47.56658    52.50718     0.02375
      2419 86412.16644    47.47473    60.05920     0.02372
      2420 86481.29617    47.44086    53.33179     0.02547
      2421 86550.48121    47.48753    50.45927     0.02698
      2422 86619.72159    47.64289    38.80899     0.02591
      2423 86689.01737    47.93648    56.59763     0.02422
      2424 86758.36858    48.39201    60.59194     0.02230
      2425 86827.77528    49.01764    62.31248     0.02369
      2426 86897.23750    49.79585    55.02563     0.02525
      2427 86966.75529    50.67539    57.80362     0.02470
      2428 87036.32869    51.56801    46.25718     0.02206
      2429 87105.95776    52.35201    58.28063     0.02426
      2430 87175.64252    52.88797    52.15856     0.02319
      2431 87245.38304    53.05533    54.09947     0.02261
      2432 87315.17934    52.80268    55.76530     0.02433
      2433 87385.03149    52.17394    52.21033     0.02468
      2434 87454.93951    51.49086    65.64851     0.02362
      2435 87524.90346    50.68490    54.06845     0.02576
      2436 87594.92339    49.71431    53.94211     0.02642
      2437 87664.99933    48.81059    54.10961     0.02184
      2438 87735.13133    48.05423    48.68900     0.02476
      2439 87805.31943    47.49944    44.18127     0.02269
      2440 87875.56369    47.10801    55.50801     0.02285
      2441 87945.86414    46.86188    48.00120     0.02620
      2442 88016.22083    46.74210    50.06808     0.02583
      2443 88086.63380    46.72961    49.86914     0.02656
      2444 88157.10311    46.80618    37.30863     0.02381
      2445 88227.62879    47.08072    50.42768     0.02758
      2446 88298.21090    47.55132    50.91668     0.02475
      2447 88368.84947    48.25695    47.57975     0.02516
      2448 88439.54455    49.23799    46.58635     0.02697
      2449 88510.29618    50.51305    48.75337     0.02594
      2450 88581.10442    52.05935    65.27430     0.02278
      2451 88651.96930    53.79658    54.22305     0.02553
      2452 88722.89088    55.57870    49.89265     0.02415
      2453 88793.86919    57.19747    59.56459     0.02330
      2454 88864.90429    58.40547    49.72831     0.02475
      2455 88935.99621    58.97385    60.99615     0.02731
      2456 89007.14501    58.78114    58.89483     0.02366
      2457 89078.35072    57.87387    56.07387     0.02136
      2458 89149.61340    56.43993    57.27311     0.02744
      2459 89220.93309    54.72464    53.17629     0.02636
      2460 89292.30984    52.95822    39.13018     0.02616
      2461 89363.74369    51.31798    44.33982     0.02234
      2462 89435.23468    49.91522    41.25234     0.02571
      2463 89506.78287    48.79718    48.79256     0.02694
      2464 89578.38830    47.95937    51.32382     0.02578
      2465 89650.05101    47.36361    48.21279     0.02551
      2466 89721.77105    46.95648    59.30495     0.02482
      2467 89793.54846    46.68386    39.76364     0.02599
      2468 89865.38330    46.49967    36.54557     0.02487
      2469 89937.27561    46.36925    54.58695     0.02542
      2470 90009.22543    46.26898    40.54866     0.02809
      2471 90081.23281    46.18397    49.99609     0.02694
      2472 90153.29780    46.10548    52.10268     0.02390
      2473 90225.42044    45.99512    49.51314     0.02837
      2474 90297.60077    45.89873    44.25173     0.02441
      2475 90369.83885    45.81693    48.41242     0.02854
      2476 90442.13472    45.73392    51.43138     0.02812
      2477 90514.48843    45.64753    47.93862     0.02854
      2478 90586.90002    45.55725    37.52450     0.02545
      2479 90659.36954    45.46295    44.72775     0.02605
      2480 90731.89704    45.36461    37.72338     0.03194
      2481 90804.48256    45.26230    31.82387     0.02701
      2482 90877.12614    45.15616    33.24669     0.02595
      2483 90949.82784    45.04638    56.74975     0.02964
      2484 91022.58770    44.93319    32.39532     0.02360
      2485 91095.40577    44.81691    34.47260     0.02664
      2486 91168.28210    44.69786    49.47906     0.02594
      2487 91241.21672    44.57643    33.15974     0.02365
      2488 91314.20970    44.45305    42.33005     0.02724
      2489 91387.26107    44.32821    41.72962     0.02620
      2490 91460.37087    44.20237    42.85423     0.02719
      2491 91533.53917    44.07608    37.63593     0.02515
      2492 91606.76600    43.94990    38.22421     0.02920
      2493 91680.05142    43.82441    51.20694     0.02813
      2494 91753.39546    43.70026    41.92030     0.02482
      2495 91826.79817    43.57806    53.32653     0.02464
      2496 91900.25961    43.45845    52.30300     0.02748
      2497 91973.77982    43.34208    43.55522     0.02416
      2498 92047.35884    43.22962    26.12662     0.02740
      2499 92120.99673    43.12175    41.81967     0.02183
      2500 92194.69353    43.01415    49.21929     0.02342
      2501 92268.44928    42.91522    36.69072     0.02611
      2502 92342.26404    42.82504    45.28398     0.02698
      2503 92416.13785    42.74238    53.67848     0.02572
      2504 92490.07076    42.66769    36.07910     0.02255
      2505 92564.06282    42.60154    38.74903     0.02339
      2506 92638.11407    42.54454    39.93583     0.02397
      2507 92712.22456    42.49727    49.14557     0.02528
      2508 92786.39434    42.46031    43.02637     0.02654
      2509 92860.62346    42.43415    38.57557     0.02251
      2510 92934.91196    42.41929    40.02685     0.02331
      2511 93009.25988    42.41616    37.50835     0.02677
      2512 93083.66729    42.42520    37.87162     0.02513
      2513 93158.13423    42.44682    43.52554     0.02423
      2514 93232.66073    42.48140    48.98646     0.02610
      2515 93307.24686    42.52941    40.56598     0.02395
      2516 93381.89266    42.59146    57.40910     0.02513
      2517 93456.59817    42.66814    53.16315     0.02631
      2518 93531.36345    42.76029    43.14931     0.02541
      2519 93606.18854    42.86904    55.10506     0.02452
      2520 93681.07349    42.99571    55.19626     0.02338
      2521 93756.01835    43.14177    53.38301     0.02356
      2522 93831.02317    43.30729    32.42636     0.02144
      2523 93906.08799    43.49512    43.50404     0.02381
      2524 93981.21286    43.70501    50.17123     0.02436
      2525 94056.39783    43.93513    42.53380     0.02363
      2526 94131.64295    44.18237    46.00668     0.02377
      2527 94206.94826    44.44193    46.06859     0.02622
      2528 94282.31382    44.70685    44.37195     0.02210
      2529 94357.73967    44.97073    47.26360     0.02203
      2530 94433.22586    45.22700    37.55784     0.02201
      2531 94508.77244    45.47168    57.69506     0.02445
      2532 94584.37946    45.70577    51.82944     0.02083
      2533 94660.04696    45.93466    49.32616     0.01926
      2534 94735.77500    46.16597    47.37768     0.02189
      2535 94811.56362    46.40759    53.60111     0.02259
      2536 94887.41287    46.66678    45.95647     0.02158
      2537 94963.32280    46.94967    54.25044     0.02101
      2538 95039.29346    47.26140    43.29176     0.02354
      2539 95115.32490    47.60653    53.75787     0.02119
      2540 95191.41715    47.98998    45.68822     0.02152
      2541 95267.57029    48.41841    41.41522     0.02062
      2542 95343.78434    48.90254    52.27727     0.02314
      2543 95420.05937    49.46101    40.49461     0.01946
      2544 95496.39542    50.12716    43.21040     0.02031
      2545 95572.79254    50.96095    57.85842     0.02244
      2546 95649.25077    52.06789    49.50561     0.02573
      2547 95725.77017    53.62893    45.71263     0.01906
      2548 95802.35079    55.94175    57.86271     0.01882
      2549 95878.99267    59.47153    45.87486     0.02075
      2550 95955.69586    64.90252    57.23665     0.01843
      2551 96032.46042    73.17275    61.14534     0.02081
      2552 96109.28639    85.46501    71.19440     0.01839
      2553 96186.17382   103.12268    73.68751     0.01451
      2554 96263.12275   127.46486   121.73926     0.01370
      2555 96340.13325   159.49617   147.90218     0.01230
      2556 96417.20536   199.54042   201.23850     0.00891
      2557 96494.33912   246.86379   242.15217     0.00826
      2558 96571.53460   299.37299   312.55877     0.00619
      2559 96648.79182   353.46362   361.14153     0.00568
      2560 96726.11086   404.08370   441.77954     0.00481
      2561 96803.49175   445.11099   485.45314     0.00450
      2562 96880.93454   470.34471   493.12006     0.00424
      2563 96958.43929   475.25586   485.08658     0.00428
      2564 97036.00604   458.80837   459.60736     0.00449
      2565 97113.63484   423.92379   407.75689     0.00507
      2566 97191.32575   376.17891   395.24695     0.00509
      2567 97269.07881   321.91086   311.11660     0.00631
      2568 97346.89407   266.85138   239.50216     0.00764
      2569 97424.77159   215.45107   198.61831     0.00878
      2570 97502.71141   170.64202   152.42654     0.00940
      2571 97580.71358   133.86997   119.05124     0.01135
      2572 97658.77815   105.32456    88.11970     0.01236
      2573 97736.90517    84.29825    85.23535     0.01290
      2574 97815.09469    69.58361    90.59963     0.01452
      2575 97893.34677    59.82510    77.43522     0.01489
      2576 97971.66145    53.77461    77.47369     0.01522
      2577 98050.03878    50.44122    66.21363     0.01465
      2578 98128.47881    49.15789    59.16450     0.01447
      2579 98206.98159    49.60389    75.86090     0.01654
      2580 98285.54717    51.82309    66.18912     0.01569
      2581 98364.17561    56.26930    66.62516     0.01496
      2582 98442.86695    63.89435    81.30128     0.01532
      2583 98521.62125    76.27123    81.93234     0.01274
      2584 98600.43854    95.73871    88.97417     0.01375
      2585 98679.31889   125.46791   121.22386     0.01071
      2586 98758.26235   169.42343   129.31473     0.01037
      2587 98837.26896   232.13852   199.17934     0.00862
      2588 98916.33877   317.92305   273.58024     0.00625
      2589 98995.47185   430.14293   375.69191     0.00503
      2590 99074.66822   570.05177   575.87297     0.00347
      2591 99153.92796   735.64952   728.79374     0.00275
      2592 99233.25110   920.75656   951.56236     0.00221
      2593 99312.63770  1114.50813  1157.88947     0.00180
      2594 99392.08781  1301.42186  1423.15010     0.00146
      2595 99471.60148  1462.34463  1571.78561     0.00136
      2596 99551.17876  1577.08169  1627.74719     0.00128
      2597 99630.81971  1629.42282  1699.83355     0.00123
      2598 99710.52436  1612.97537  1603.06463     0.00129
      2599 99790.29278  1533.52553  1510.95672     0.00133
      2600 99870.12502  1405.80099  1384.04162     0.00145
      2601 99950.02112  1247.66564  1162.46040     0.00172
      2602 100029.98113  1075.70763  1039.38679     0.00193
      2603 100110.00512   903.34787   838.02912     0.00230
      2604 100190.09312   740.61084   694.83898     0.00270
      2605 100270.24520   594.40403   555.67371     0.00333
      2606 100350.46139   468.78246   434.05516     0.00395
      2607 100430.74176   364.94663   341.40111     0.00482
      2608 100511.08635   281.95997   260.58844     0.00569
      2609 100591.49522   217.54325   215.22748     0.00627
      2610 100671.96842   168.79834   168.19407     0.00897
      2611 100752.50599   132.74774   141.22737     0.00892
      2612 100833.10800   106.64505    91.99739     0.01160
      2613 100913.77449    88.11516    87.08202     0.01092
      2614 100994.50550    75.19308    79.36320     0.01235
      2615 101075.30111    66.31033    66.07390     0.01181
      2616 101156.16135    60.25668    68.17052     0.01270
      2617 101237.08628    56.13022    67.26680     0.01404
      2618 101318.07595    53.28266    45.43784     0.01366
      2619 101399.13041    51.26477    44.31450     0.01221
      2620 101480.24971    49.77614    52.28216     0.01406
      2621 101561.43391    48.62224    56.78095     0.01544
      2622 101642.68306    47.68085    58.90470     0.01541
      2623 101723.99721    46.87726    43.14331     0.01349
      2624 101805.37640    46.16772    46.54217     0.01518
      2625 101886.82071    45.52804    37.40799     0.01361
      2626 101968.33016    44.94731    44.75168     0.01550
      2627 102049.90483    44.42422    38.01279     0.01526
      2628 102131.54475    43.96437    45.50581     0.01429
      2629 102213.24999    43.57871    39.61093     0.01211
      2630 102295.02059    43.28220    48.81378     0.01454
      2631 102376.85660    43.09245    40.81889     0.01471
      2632 102458.75809    43.02829    29.14737     0.01356
      2633 102540.72509    43.10838    49.32945     0.01354
      2634 102622.75767    43.34760    44.53708     0.01448
      2635 102704.85588    43.75584    46.43809     0.01412
      2636 102787.01977    44.33422    45.78632     0.01248
      2637 102869.24938    45.07113    43.24985     0.01755
      2638 102951.54478    45.93742    44.36569     0.01451
      2639 103033.90602    46.88072    37.13905     0.01306
      2640 103116.33314    47.81862    43.55563     0.01365
      2641 103198.82621    48.63067    31.21648     0.01389
      2642 103281.38527    49.14897    41.66572     0.01414
      2643 103364.01038    49.14715    52.28098     0.01288
      2644 103446.70159    48.32750    59.27413     0.01412
      2645 103529.45895    46.30607    47.51930     0.01112
      2646 103612.28251    42.59543    36.82178     0.01057
      2647 103695.17234    36.58497    40.01745     0.01508
      2648 103758.91107    29.93534    22.67534     0.02346
      
data_d6_MAPbI3_130K_p_02
_diffrn_radiation_wavelength     2.665
# 1 Angstrom bandwith with centre wavelengths of 2.665 Angstrom 
loop_
_refln_index_h
_refln_index_k
_refln_index_l
_refln_d_spacing
_refln_F_squared_calc
_refln_F_squared_meas 
   0   0   2     4.28744  1856.78003  1867.98523 
   0   0   4     2.14372   833.84690   834.92642 
   0   0   6     1.42915  1033.32230  1061.31526 
   0   1   1     7.09071    18.30075    19.74503 
   0   1   3     2.78757    15.07680    15.47427 
   0   1   5     1.69933     0.00041     0.00040 
   0   1   7     1.21924    11.72348    11.45455 
   0   2   0     6.30484  1376.70759  1341.40091 
   0   2   2     3.54536  1718.46886  1707.31923 
   0   2   4     2.02961    18.70480    19.76053 
   0   2   6     1.39379    39.37751    40.31155 
   0   3   1     3.77419    18.83049    19.02132 
   0   3   3     2.36357    26.97046    28.02812 
   0   3   5     1.58789     5.67625     5.66566 
   0   3   7     1.17605    22.87253    22.62593 
   0   4   0     3.15242  3167.51372  3362.17144 
   0   4   2     2.53978   547.55754   557.19528 
   0   4   4     1.77268   279.25311   277.29057 
   0   4   6     1.30163   889.86641   889.62591 
   0   5   1     2.41946    35.95329    34.56454 
   0   5   3     1.89107   216.01676   220.97899 
   0   5   5     1.41814   141.11058   142.13913 
   0   6   0     2.10161     4.65106     4.73183 
   0   6   2     1.88709    35.01610    35.12203 
   0   6   4     1.50073   444.85430   442.99818 
   0   6   6     1.18179   387.81913   373.56024 
   0   7   1     1.76290   111.27129   114.55229 
   0   7   3     1.52398    58.16509    60.34056 
   0   7   5     1.24209    51.81240    49.76904 
   0   8   0     1.57621   809.83418   864.66587 
   0   8   2     1.47940    85.54659    87.80253 
   0   8   4     1.26989    47.61440    47.61310 
   0   9   1     1.38274    67.47041    67.95503 
   0   9   3     1.25806   147.56772   150.89013 
   0  10   0     1.26097    10.44365    10.59187 
   0  10   2     1.20973     0.03754     0.03788 
   1   0   1     6.16024  1657.50071  1600.49676 
   1   0   2     3.85896    37.20417    36.45765 
   1   0   3     2.72012    41.27781    40.33687 
   1   0   4     2.08354   735.06252   754.67451 
   1   0   5     1.68369   146.83094   146.10119 
   1   0   6     1.41089     1.09820     1.12938 
   1   0   7     1.21343     0.51093     0.50558 
   1   1   1     5.53504     8.05795     7.79617 
   1   1   2     3.69003   151.29964   151.15254 
   1   1   3     2.65895    21.10843    21.48799 
   1   1   4     2.05567   117.72636   119.38771 
   1   1   5     1.66888    48.79520    49.03146 
   1   1   6     1.40214   401.97160   401.43877 
   1   1   7     1.20785    71.05397    72.05367 
   1   2   1     4.40618  6149.92039  6255.66118 
   1   2   2     3.29139  1317.69026  1289.01246 
   1   2   3     2.49759  1509.61237  1530.69708 
   1   2   4     1.97832    54.90814    56.83826 
   1   2   5     1.62669  1276.87518  1280.99058 
   1   2   6     1.37684   703.85143   708.57103 
   1   2   7     1.19156  1224.46518  1223.14845 
   1   3   1     3.47202     1.33059     1.30239 
   1   3   2     2.84263    44.58793    42.43859 
   1   3   3     2.28363   169.94720   169.08414 
   1   3   4     1.86678    99.03604    96.35536 
   1   3   5     1.56296     7.22756     7.28292 
   1   3   6     1.33755   185.69626   185.26583 
   1   3   7     1.16582    95.26533    92.59200 
   1   4   1     2.80631    86.36315    86.91845 
   1   4   2     2.44136     0.22588     0.22367 
   1   4   3     2.05943  1351.69168  1360.54416 
   1   4   4     1.73820   549.50013   520.33082 
   1   4   5     1.48514     7.34398     7.40216 
   1   4   6     1.28780    26.93467    26.82402 
   1   5   1     2.33393    83.41626    81.18956 
   1   5   2     2.11109    84.15726    80.90136 
   1   5   3     1.84937     8.74439     8.99563 
   1   5   4     1.60627     0.00266     0.00263 
   1   5   5     1.40030   113.35385   114.03492 
   1   5   6     1.23130   189.74511   184.84038 
   1   6   1     1.98905   519.76833   527.59400 
   1   6   2     1.84565   332.14756   343.34921 
   1   6   3     1.66306    29.74653    29.28215 
   1   6   4     1.47963   211.47001   216.95853 
   1   6   5     1.31401   240.01610   241.53104 
   1   6   6     1.17140   128.41849   124.42069 
   1   7   1     1.72898     0.17843     0.17790 
   1   7   2     1.63230     8.94179     8.60668 
   1   7   3     1.50190   252.99233   252.61912 
   1   7   4     1.36269    72.01269    73.55698 
   1   7   5     1.23005   107.36544   104.19400 
   1   8   1     1.52702   322.81086   337.84661 
   1   8   2     1.45918     6.22592     6.48175 
   1   8   3     1.36379  1580.87906  1616.09532 
   1   8   4     1.25703    93.89233    95.26938 
   1   8   5     1.15067   204.45610   193.76410 
   1   9   1     1.36619    36.71269    37.81282 
   1   9   2     1.31696   169.49350   169.68840 
   1   9   3     1.24556    78.17162    76.17136 
   1   9   4     1.16265    12.96352    13.25887 
   1  10   1     1.23535   650.89314   653.45364 
   1  10   2     1.19860   103.67407   100.54899 
   2   0   0     4.42786   822.73291   898.58443 
   2   0   1     3.93429    62.91481    59.78692 
   2   0   2     3.08012  1233.22775  1312.40329 
   2   0   3     2.40141   653.19330   628.24714 
   2   0   4     1.92948   179.77361   173.15391 
   2   0   5     1.59921   289.71472   292.31178 
   2   0   6     1.36006   154.23482   158.62175 
   2   0   7     1.18063    40.92537    39.91114 
   2   1   0     4.17777     2.04549     2.00295 
   2   1   1     3.75573    35.19392    32.68632 
   2   1   2     2.99215    61.54119    58.46315 
   2   1   3     2.35902   249.18952   258.97862 
   2   1   4     1.90728    79.16506    76.12873 
   2   1   5     1.58651   122.43929   124.62213 
   2   1   6     1.35222   152.91359   161.50621 
   2   1   7     1.17549    62.58323    61.95760 
   2   2   0     3.62353  1105.43296  1137.03307 
   2   2   1     3.33775  1431.00782  1427.63407 
   2   2   2     2.76752   327.46098   342.77254 
   2   2   3     2.24414   413.00011   408.10564 
   2   2   4     1.84502   386.50291   399.49457 
   2   2   5     1.55012    39.61239    40.26875 
   2   2   6     1.32948     0.00157     0.00158 
   2   2   7     1.16046  1005.68050  1016.25259 
   2   3   0     3.04845     6.38828     6.30861 
   2   3   1     2.87233     2.95968     2.95763 
   2   3   2     2.48446   152.58329   141.48288 
   2   3   3     2.08510   301.77708   309.19846 
   2   3   4     1.75355    50.51787    49.56344 
   2   3   5     1.49468   147.79885   150.13123 
   2   3   6     1.29400    22.48490    22.16866 
   2   4   0     2.56806  1462.66978  1515.61572 
   2   4   1     2.46010    18.58922    17.80594 
   2   4   2     2.20309  2227.05069  2270.80053 
   2   4   3     1.91029   354.83392   333.65474 
   2   4   4     1.64569   395.69128   388.12542 
   2   4   5     1.42619    89.98640    93.04099 
   2   4   6     1.24879   262.91352   258.51367 
   2   5   0     2.19141    42.63411    43.82564 
   2   5   1     2.12318   101.68549   101.25837 
   2   5   2     1.95130     4.95111     4.85538 
   2   5   3     1.73910    83.08687    78.02554 
   2   5   4     1.53242    16.92475    17.24615 
   2   5   5     1.35056    60.42182    62.57846 
   2   5   6     1.19708    81.07667    78.20978 
   2   6   0     1.89861   657.74587   644.01673 
   2   6   1     1.85371   445.88254   450.68225 
   2   6   2     1.73601   108.03038   105.52835 
   2   6   3     1.58150     5.50545     5.64227 
   2   6   4     1.42131   240.92073   244.32683 
   2   6   5     1.27265    49.97253    48.75321 
   2   7   0     1.66858    49.16151    49.35211 
   2   7   1     1.63786    62.56086    60.68817 
   2   7   2     1.55497   105.17200   106.00453 
   2   7   3     1.44101   185.45336   192.48840 
   2   7   4     1.31673     5.17372     5.17517 
   2   7   5     1.19593   115.11879   110.87234 
   2   8   0     1.48493  1514.75140  1528.96233 
   2   8   1     1.46315     0.65774     0.68934 
   2   8   2     1.40316  2280.44914  2289.56764 
   2   8   3     1.31772    41.84500    42.09269 
   2   8   4     1.22068   660.43465   645.26724 
   2   9   0     1.33580     8.26587     8.34795 
   2   9   1     1.31988   107.10846   109.84440 
   2   9   2     1.27533    43.59609    41.86424 
   2   9   3     1.21016    14.46660    14.57309 
   2  10   0     1.21275   294.82496   294.26252 
   2  10   1     1.20080   126.48924   122.73448 
   2  10   2     1.16696     0.03670     0.03522 
   3   0   1     2.79115  2052.92115  2102.36404 
   3   0   2     2.43136  1117.20655  1122.65088 
   3   0   3     2.05341   933.03515   947.69023 
   3   0   4     1.73457    42.80033    42.40928 
   3   0   5     1.48288  1085.00312  1105.72600 
   3   0   6     1.28632   441.63260   439.59066 
   3   1   1     2.72518   191.94930   182.84500 
   3   1   2     2.38738    25.86469    24.96628 
   3   1   3     2.02672   357.21910   381.37108 
   3   1   4     1.71839     0.00045     0.00046 
   3   1   5     1.47273    44.75470    47.61467 
   3   1   6     1.27968     2.69739     2.63258 
   3   2   1     2.55223    39.02950    43.09243 
   3   2   2     2.26852   935.22751   961.28398 
   3   2   3     1.95247   959.24678   940.47970 
   3   2   4     1.67244   642.40948   654.13839 
   3   2   5     1.44349   955.72766   993.94089 
   3   2   6     1.26036   124.61732   126.91569 
   3   3   1     2.32518   161.92791   153.91288 
   3   3   2     2.10461    30.22612    30.52022 
   3   3   3     1.84501   147.01923   151.96105 
   3   3   4     1.60341    10.64600    10.70091 
   3   3   5     1.39841    64.05353    65.44552 
   3   3   6     1.23001   113.18268   109.79603 
   3   4   1     2.08975   702.72381   723.82407 
   3   4   2     1.92526  1193.05799  1143.89392 
   3   4   3     1.72059   258.10518   256.61010 
   3   4   4     1.51971     1.94958     2.02346 
   3   4   5     1.34184   832.04792   831.60796 
   3   4   6     1.19099   410.04224   411.20752 
   3   5   1     1.87123    31.03916    31.05897 
   3   5   2     1.75037     0.21872     0.21486 
   3   5   3     1.59234   210.91249   203.51281 
   3   5   4     1.42917   357.98992   367.67684 
   3   5   5     1.27828     7.40967     7.19738 
   3   6   1     1.67890  2103.71627  2101.97582 
   3   6   2     1.58996   303.01460   295.30526 
   3   6   3     1.46873   123.51762   127.83811 
   3   6   4     1.33777   168.07825   167.54481 
   3   6   5     1.21163  1787.49970  1799.37996 
   3   7   1     1.51354    19.37869    20.30272 
   3   7   2     1.44741   297.31630   310.38509 
   3   7   3     1.35416     2.60668     2.73671 
   3   7   4     1.24948     0.67223     0.66443 
   3   8   1     1.37248    10.67571    11.07229 
   3   8   2     1.32260   458.72868   474.71339 
   3   8   3     1.25032     1.63697     1.62899 
   3   8   4     1.16653    12.00960    11.56607 
   3   9   1     1.25217     9.48469     9.53590 
   3   9   2     1.21394     0.10539     0.10373 
   3   9   3     1.15734    82.47283    77.26703 
   4   0   0     2.21393    33.48313    34.72906 
   4   0   1     2.14363  1007.61690  1008.77622 
   4   0   2     1.96714   199.56384   193.89414 
   4   0   3     1.75029    29.11523    28.60342 
   4   0   4     1.54006    12.38644    12.67492 
   4   0   5     1.35578    35.68372    36.81880 
   4   0   6     1.20071    15.81710    15.35348 
   4   1   0     2.18057    11.00598    10.88342 
   4   1   1     2.11331    98.10228    93.85594 
   4   1   2     1.94364   236.66331   237.10180 
   4   1   3     1.73367   411.78848   409.66077 
   4   1   4     1.52870    44.88737    46.81783 
   4   1   5     1.34802   268.83287   269.22136 
   4   1   6     1.19530    36.48742    35.09825 
   4   2   0     2.08889   839.39152   862.56080 
   4   2   1     2.02953     3.92062     4.14390 
   4   2   2     1.87786  1808.88926  1806.79897 
   4   2   3     1.68651   552.92606   561.59533 
   4   2   4     1.49607  1553.31328  1568.11313 
   4   2   5     1.32548    67.00578    69.21061 
   4   2   6     1.17951   554.84235   544.44259 
   4   3   0     1.95882    44.22636    43.10792 
   4   3   1     1.90963    66.87718    63.07304 
   4   3   2     1.78168    16.56217    16.23609 
   4   3   3     1.61580   188.66285   185.04821 
   4   3   4     1.44605    21.43141    22.32266 
   4   3   5     1.29032   151.87035   150.25380 
   4   3   6     1.15452   110.13377   101.40895 
   4   4   0     1.81176   688.83701   682.86860 
   4   4   1     1.77263  1433.07394  1423.34141 
   4   4   2     1.66888   585.24141   588.06361 
   4   4   3     1.53025    52.35022    54.11190 
   4   4   4     1.38376   517.32748   523.45789 
   4   4   5     1.24548    38.42005    37.43938 
   4   5   0     1.66378   113.56840   112.09028 
   4   5   1     1.63332    13.65217    13.12530 
   4   5   2     1.55109   117.18668   118.85406 
   4   5   3     1.43792   104.97392   108.46503 
   4   5   4     1.31437     2.74400     2.75790 
   4   5   5     1.19416    41.27429    39.73567 
   4   6   0     1.52422   118.21039   122.70796 
   4   6   1     1.50070     6.74098     6.71208 
   4   6   2     1.43617    56.73104    58.54795 
   4   6   3     1.34494   369.50502   370.38088 
   4   6   4     1.24223    33.13025    31.84250 
   4   7   0     1.39728     8.51621     8.72449 
   4   7   1     1.37910    21.99585    21.98423 
   4   7   2     1.32851    96.58756    97.21798 
   4   7   3     1.25532    34.60805    34.47423 
   4   7   4     1.17058     1.40220     1.35011 
   4   8   0     1.28403  1503.58900  1473.78704 
   4   8   1     1.26987   569.39298   569.40300 
   4   8   2     1.23005  1925.32756  1868.41362 
   4   8   3     1.17127    95.10854    92.06739 
   4   9   0     1.18392   252.46585   239.19581 
   4   9   1     1.17279    10.02194     9.77380 
   5   0   1     1.73453  1762.64756  1747.01187 
   5   0   2     1.63697   414.77011   401.67557 
   5   0   3     1.50553  2407.45703  2397.94609 
   5   0   4     1.36541    20.68564    21.23005 
   5   0   5     1.23205    48.88503    47.57185 
   5   1   1     1.71835   183.99455   186.60393 
   5   1   2     1.62334     0.06403     0.06428 
   5   1   3     1.49492   130.56673   132.50265 
   5   1   4     1.35747    12.95181    13.26978 
   5   1   5     1.22621     2.17074     2.06759 
   5   2   1     1.67239   561.52420   571.70547 
   5   2   2     1.58443   343.96193   355.62318 
   5   2   3     1.46436   243.49063   254.77285 
   5   2   4     1.33447    66.95596    68.15795 
   5   2   5     1.20918    33.62838    34.03927 
   5   3   1     1.60337   129.79568   130.47535 
   5   3   2     1.52537    16.18514    16.85687 
   5   3   3     1.41736    54.96820    55.30059 
   5   3   4     1.29861   194.09255   191.33073 
   5   3   5     1.18230     1.27265     1.21904 
   5   4   1     1.51968   831.77616   863.27289 
   5   4   2     1.45278   894.43645   927.24794 
   5   4   3     1.35855  1808.53173  1860.77007 
   5   4   4     1.25293     7.27063     7.29397 
   5   5   1     1.42914    27.56542    28.31247 
   5   5   2     1.37307    79.92366    82.50109 
   5   5   3     1.29271   124.26614   122.45319 
   5   5   4     1.20072     0.67687     0.65700 
   5   6   1     1.33775    85.96889    85.70300 
   5   6   2     1.29143   445.21664   439.51606 
   5   6   3     1.22390  1069.09308  1028.69204 
   5   7   1     1.24946    49.05597    48.48008 
   5   7   2     1.21148    43.09247    43.39118 
   5   7   3     1.15520    21.64794    19.92597 
   5   8   1     1.16651   644.25530   620.54137 
   6   0   0     1.47595   133.69765   138.69647 
   6   0   1     1.45456    15.84340    16.39667 
   6   0   2     1.39557    41.31335    42.37841 
   6   0   3     1.31143    18.90930    19.02991 
   6   0   4     1.21568   149.95866   146.81995 
   6   1   0     1.46594     0.20312     0.21092 
   6   1   1     1.44498    26.65272    27.72336 
   6   1   2     1.38710     4.36542     4.44737 
   6   1   3     1.30439    43.04297    43.46414 
   6   1   4     1.21007    22.08943    22.25629 
   6   2   0     1.43710   854.52616   881.97418 
   6   2   1     1.41733   690.91441   695.07695 
   6   2   2     1.36259   148.66943   151.86479 
   6   2   3     1.28395    47.17362    46.19815 
   6   2   4     1.19369   187.20892   180.87863 
   6   3   0     1.39259    26.87488    27.43765 
   6   3   1     1.37458   111.13176   113.66626 
   6   3   2     1.32448    22.10491    22.92638 
   6   3   3     1.25191    45.63376    45.88102 
   6   3   4     1.16781     9.21170     8.79159 
   6   4   0     1.33670   285.94464   286.62624 
   6   4   1     1.32075     3.15430     3.24352 
   6   4   2     1.27612   143.07220   137.51538 
   6   4   3     1.21083   145.18042   146.20567 
   6   5   0     1.27383    28.55669    27.58140 
   6   5   1     1.26001     4.61950     4.71286 
   6   5   2     1.22108    10.34652    10.10836 
   6   5   3     1.16352   156.81571   159.67758 
   6   6   0     1.20784   757.36488   767.99845 
   6   6   1     1.19604   466.85715   449.72268 
   6   6   2     1.16259   306.72623   313.68062 
   7   0   1     1.25155   526.73582   528.92373 
   7   0   2     1.21338     6.28109     6.21917 
   7   0   3     1.15685     7.52231     6.98917 
   7   1   1     1.24543    52.02321    50.69584 
   7   1   2     1.20780    12.89892    13.07712 
   7   1   3     1.15201     0.69983     0.64905 
   7   2   1     1.22760    46.92996    44.68690 
   7   2   2     1.19152   550.66704   550.35384 
   7   3   1     1.19951    68.69803    66.81805 
   7   3   2     1.16578    13.92997    13.54936 
   7   4   1     1.16323  2464.05569  2515.44469 
loop_
_pd_proc_point_id
_pd_meas_time_of_flight
_pd_proc_intensity_total
_pd_calc_intensity_total
_pd_proc_ls_weight
         1 25984.00730    60.35031    63.57334     0.30980
         2 26004.79451    61.27107    60.67451     0.32882
         3 26025.59834    61.16947    55.79623     0.33982
         4 26046.41882    60.74221    54.74937     0.33254
         5 26067.25596    60.80104    55.00139     0.34164
         6 26088.10976    61.20447    57.83195     0.32628
         7 26108.98025    61.42049    56.62824     0.33572
         8 26129.86743    61.57751    53.00628     0.35028
         9 26150.77133    62.03360    56.33820     0.34553
        10 26171.69194    63.51313    57.37861     0.35021
        11 26192.62930    67.93494    61.31734     0.34037
        12 26213.58340    75.41599    78.89885     0.29617
        13 26234.55427    83.33436    86.21587     0.29044
        14 26255.54191    94.44873    93.16789     0.27681
        15 26276.54634   108.81871   112.92236     0.24321
        16 26297.56758   113.03316   125.53157     0.23171
        17 26318.60564   104.35586   106.37563     0.26876
        18 26339.66052    94.53705    90.40092     0.30076
        19 26360.73225    87.59727    83.57910     0.32111
        20 26381.82083    80.32952    78.60270     0.34273
        21 26402.92629    73.08901    68.12841     0.38986
        22 26424.04863    68.01773    63.22993     0.41295
        23 26445.18787    65.73160    61.56565     0.42795
        24 26466.34402    65.10994    63.40157     0.42287
        25 26487.51710    64.20805    62.28486     0.43320
        26 26508.70711    62.69483    61.49380     0.44607
        27 26529.91408    61.48612    57.08501     0.47109
        28 26551.13801    61.04544    62.06473     0.45022
        29 26572.37892    60.98697    61.22948     0.45815
        30 26593.63682    60.99207    61.44426     0.45453
        31 26614.91173    62.05917    59.50250     0.47167
        32 26636.20366    65.52013    64.33142     0.46458
        33 26657.51262    69.69658    69.08661     0.43923
        34 26678.83863    71.66592    72.11557     0.43512
        35 26700.18170    72.12024    71.02476     0.44363
        36 26721.54185    71.46948    68.03432     0.45396
        37 26742.91908    70.08422    66.26000     0.46887
        38 26764.31342    68.18125    65.48977     0.47776
        39 26785.72487    65.56293    60.41012     0.50519
        40 26807.15345    63.18959    59.37040     0.51829
        41 26828.59917    61.77725    55.86826     0.54253
        42 26850.06205    61.62300    58.00828     0.53106
        43 26871.54210    64.46817    62.13711     0.51233
        44 26893.03933    74.70498    75.50788     0.46682
        45 26914.55377    91.39237    93.46665     0.39553
        46 26936.08541   100.05497   106.77931     0.37006
        47 26957.63428    94.84184    92.33104     0.41428
        48 26979.20038    86.09105    81.49412     0.45488
        49 27000.78374    81.12141    76.56309     0.48483
        50 27022.38437    79.86889    77.18993     0.48198
        51 27044.00228    77.65148    75.57104     0.50343
        52 27065.63748    73.51063    68.58364     0.54041
        53 27087.28999    70.02040    68.31856     0.54975
        54 27108.95982    67.86775    66.51861     0.56676
        55 27130.64699    66.32728    64.96942     0.57128
        56 27152.35151    64.50408    63.76507     0.59027
        57 27174.07339    62.54200    59.25247     0.63028
        58 27195.81265    61.15047    56.77518     0.64876
        59 27217.56930    60.57872    58.65749     0.65507
        60 27239.34335    61.38776    58.08048     0.66691
        61 27261.13483    65.54672    63.29596     0.64157
        62 27282.94374    73.25675    72.81206     0.59374
        63 27304.77009    78.03861    84.33717     0.54637
        64 27326.61391    78.75863    79.19458     0.58576
        65 27348.47520    85.58137    84.44360     0.55877
        66 27370.35398   100.70746   101.93096     0.50323
        67 27392.25026   106.89898   111.48594     0.47563
        68 27414.16406    97.20696    99.33987     0.53033
        69 27436.09539    83.89812    78.71234     0.61959
        70 27458.04427    75.05753    74.67347     0.66695
        71 27480.01070    69.86805    68.31616     0.69898
        72 27501.99471    66.11347    63.71837     0.74885
        73 27523.99631    64.08433    63.82880     0.74328
        74 27546.01551    65.38307    64.04054     0.75314
        75 27568.05232    70.75164    67.87852     0.73421
        76 27590.10676    75.29606    74.10146     0.71168
        77 27612.17885    75.90819    76.02309     0.71519
        78 27634.26859    79.74034    76.76314     0.72601
        79 27656.37600    85.69395    82.58910     0.69455
        80 27678.50110    83.12990    80.49152     0.71843
        81 27700.64391    75.19059    70.93819     0.78615
        82 27722.80442    69.94004    66.60971     0.83351
        83 27744.98266    70.95962    66.55644     0.84551
        84 27767.17865    83.60934    78.38153     0.76350
        85 27789.39239   104.93242    99.29307     0.64950
        86 27811.62391   110.94286   112.20939     0.60277
        87 27833.87321    97.61975    94.88683     0.68643
        88 27856.14030    82.70989    77.29476     0.80251
        89 27878.42522    75.45917    73.06153     0.82809
        90 27900.72796    76.20165    75.02118     0.80486
        91 27923.04854    77.23886    82.71539     0.76315
        92 27945.38698    72.56405    74.75301     0.82128
        93 27967.74329    66.60984    63.32917     0.92367
        94 27990.11748    62.80346    58.80547     0.98755
        95 28012.50958    60.87602    57.55936     1.02441
        96 28034.91958    60.25939    56.14269     1.04611
        97 28057.34752    60.58293    58.08053     1.06583
        98 28079.79340    60.82072    58.62287     1.06284
        99 28102.25723    60.78655    57.69893     1.08769
       100 28124.73904    61.70999    59.62665     1.06006
       101 28147.23883    62.95490    63.17798     1.05972
       102 28169.75662    63.01010    59.93873     1.08713
       103 28192.29243    63.82036    61.58920     1.07658
       104 28214.84626    66.43978    64.57836     1.04526
       105 28237.41814    68.59455    67.90177     1.02271
       106 28260.00807    71.48117    69.36206     1.02887
       107 28282.61608    74.77536    76.61353     0.96596
       108 28305.24217    72.67338    74.17734     0.98142
       109 28327.88636    67.30266    67.92898     1.05171
       110 28350.54867    63.63800    62.46020     1.12441
       111 28373.22911    62.50663    60.86503     1.13443
       112 28395.92770    63.27785    61.91645     1.15361
       113 28418.64444    64.63319    68.06737     1.08586
       114 28441.37935    64.72330    65.95600     1.10505
       115 28464.13246    64.12387    66.35436     1.11823
       116 28486.90376    63.46109    65.16340     1.13796
       117 28509.69329    61.86739    63.64221     1.17585
       118 28532.50104    60.15687    60.76373     1.19821
       119 28555.32704    59.10793    57.77028     1.24738
       120 28578.17130    58.62520    56.00960     1.27315
       121 28601.03384    58.48434    57.64414     1.26855
       122 28623.91467    58.74227    58.38607     1.28235
       123 28646.81380    60.42699    60.46320     1.25477
       124 28669.73125    65.82302    66.01778     1.19680
       125 28692.66703    72.85768    72.93134     1.12090
       126 28715.62117    73.38142    75.47168     1.10024
       127 28738.59367    68.63976    67.63187     1.18260
       128 28761.58454    64.88226    63.82914     1.26816
       129 28784.59381    63.16239    60.66202     1.28311
       130 28807.62148    63.17919    60.82505     1.29425
       131 28830.66758    64.09157    60.25581     1.31506
       132 28853.73211    63.58117    61.18652     1.29185
       133 28876.81510    61.82809    59.22907     1.33199
       134 28899.91655    60.52558    59.20122     1.34595
       135 28923.03649    60.07822    58.37875     1.36424
       136 28946.17491    60.85092    60.81615     1.32455
       137 28969.33185    66.07887    63.73438     1.28830
       138 28992.50732    81.92160    76.31192     1.14396
       139 29015.70133   100.40765    97.95550     0.96496
       140 29038.91389   101.82783   101.13013     0.94818
       141 29062.14502    92.63104    92.09607     1.01440
       142 29085.39473    82.41904    82.61675     1.09955
       143 29108.66305    73.40743    73.80320     1.18435
       144 29131.94998    69.38335    68.55164     1.25626
       145 29155.25554    71.72628    71.71826     1.23147
       146 29178.57974    76.32822    74.43757     1.19284
       147 29201.92261    76.41601    76.63030     1.17900
       148 29225.28415    71.58394    69.23362     1.25654
       149 29248.66437    66.19716    65.16895     1.32652
       150 29272.06331    62.62901    62.49164     1.35616
       151 29295.48096    61.23748    61.09274     1.38257
       152 29318.91734    62.25796    59.63160     1.40629
       153 29342.37247    64.80701    62.94908     1.35296
       154 29365.84637    67.64013    67.84063     1.31349
       155 29389.33905    74.85236    73.12637     1.24139
       156 29412.85052    84.02404    84.38705     1.12760
       157 29436.38080    82.34033    81.99434     1.16741
       158 29459.92991    73.37032    73.96514     1.24858
       159 29483.49785    66.38464    67.84320     1.33385
       160 29507.08465    62.36950    62.97967     1.39580
       161 29530.69032    60.17036    60.81072     1.45616
       162 29554.31487    59.06801    58.97513     1.47295
       163 29577.95832    58.58290    58.11503     1.49413
       164 29601.62069    58.52288    59.61419     1.50462
       165 29625.30198    58.87826    58.49487     1.49450
       166 29649.00222    59.95100    60.50210     1.49278
       167 29672.72143    62.74102    63.45876     1.43722
       168 29696.45960    65.66791    66.73143     1.41714
       169 29720.21677    65.75888    65.84808     1.42329
       170 29743.99294    65.73132    65.54806     1.45075
       171 29767.78814    66.28276    64.93847     1.44970
       172 29791.60237    65.39472    64.96974     1.46160
       173 29815.43565    64.60010    66.48606     1.45236
       174 29839.28800    65.11767    67.82173     1.44413
       175 29863.15943    68.40093    69.01481     1.42594
       176 29887.04996    72.92167    75.70253     1.35086
       177 29910.95960    72.14533    75.75139     1.35194
       178 29934.88837    67.99256    70.04943     1.44047
       179 29958.83628    64.66867    69.16280     1.45080
       180 29982.80335    62.61255    63.71365     1.53222
       181 30006.78959    62.10089    62.78840     1.56474
       182 30030.79502    61.91872    62.04780     1.59193
       183 30054.81966    60.80472    60.53691     1.61502
       184 30078.86351    59.66108    59.97754     1.64392
       185 30102.92660    59.25200    58.68422     1.67073
       186 30127.00894    59.85670    60.22596     1.65136
       187 30151.11055    61.72073    63.83505     1.60908
       188 30175.23144    65.78789    68.45028     1.53822
       189 30199.37162    73.70832    73.50114     1.46383
       190 30223.53112    80.44366    80.50174     1.38053
       191 30247.70995    78.61812    77.64978     1.42316
       192 30271.90811    73.88076    72.91717     1.48859
       193 30296.12564    77.22035    77.43549     1.45836
       194 30320.36254    86.04681    85.35028     1.34195
       195 30344.61883    85.98173    86.33449     1.34393
       196 30368.89453    80.69565    80.44764     1.41368
       197 30393.18964    78.03439    77.96725     1.44617
       198 30417.50419    74.40500    75.37416     1.48592
       199 30441.83820    71.88689    71.64071     1.57163
       200 30466.19167    71.36813    70.39701     1.57190
       201 30490.56462    68.89914    67.46364     1.63771
       202 30514.95707    66.57013    67.00015     1.64343
       203 30539.36904    66.33941    69.75837     1.60588
       204 30563.80053    66.33016    72.07516     1.56838
       205 30588.25157    64.82877    68.50502     1.63068
       206 30612.72218    63.75076    68.70328     1.68142
       207 30637.21235    65.95061    68.30759     1.66406
       208 30661.72212    78.24218    78.74901     1.51817
       209 30686.25150   105.51878   105.61514     1.21937
       210 30710.80050   122.53886   129.62512     1.04989
       211 30735.36914   111.18813   114.34452     1.15921
       212 30759.95744    95.24550    97.83387     1.32255
       213 30784.56540    97.86279    99.31718     1.31592
       214 30809.19306   117.13048   119.35023     1.14550
       215 30833.84041   120.24602   123.53576     1.10666
       216 30858.50748   100.21023   100.07136     1.31028
       217 30883.19429    80.77084    85.27887     1.48197
       218 30907.90084    69.52521    70.56646     1.69445
       219 30932.62716    63.90564    66.76828     1.79302
       220 30957.37327    61.33168    62.92768     1.84735
       221 30982.13917    60.62999    64.29112     1.84301
       222 31006.92488    61.71232    65.76867     1.82612
       223 31031.73042    64.02673    65.72124     1.81652
       224 31056.55580    66.92908    68.59219     1.77502
       225 31081.40105    72.87323    75.08930     1.67525
       226 31106.26617    82.32945    84.54808     1.54814
       227 31131.15118    83.71120    82.29954     1.57650
       228 31156.05610    75.51797    75.25969     1.68007
       229 31180.98094    67.85545    67.38632     1.82180
       230 31205.92573    64.53148    65.07768     1.88229
       231 31230.89047    67.04844    66.23873     1.84958
       232 31255.87518    74.88829    75.11897     1.71154
       233 31280.87988    78.43127    79.83972     1.64748
       234 31305.90459    72.88407    73.85410     1.72841
       235 31330.94931    66.03659    67.21177     1.85569
       236 31356.01407    61.98678    63.29968     1.92907
       237 31381.09888    60.01406    60.77428     1.99820
       238 31406.20376    59.13694    61.26405     2.00044
       239 31431.32872    58.98322    59.50055     2.04915
       240 31456.47379    59.55515    61.00141     2.01460
       241 31481.63897    60.51411    61.07777     1.99659
       242 31506.82428    61.21326    63.17188     1.95098
       243 31532.02974    61.56379    63.16182     1.97578
       244 31557.25536    61.82133    63.70504     1.94366
       245 31582.50116    62.75445    64.03092     1.94311
       246 31607.76716    64.86589    67.27016     1.88264
       247 31633.05338    69.59580    72.20675     1.80657
       248 31658.35982    84.30299    83.41422     1.61990
       249 31683.68651   120.04231   115.80065     1.26116
       250 31709.03346   153.36727   154.12886     1.00420
       251 31734.40069   141.46883   145.39438     1.05034
       252 31759.78821   107.04160   105.58247     1.36919
       253 31785.19604    82.40236    83.04367     1.62664
       254 31810.62419    69.93418    69.90247     1.83504
       255 31836.07269    64.06708    66.03342     1.91213
       256 31861.54155    61.31150    63.85953     1.95744
       257 31887.03078    60.03524    61.68244     2.00628
       258 31912.54041    59.49598    61.24424     2.02337
       259 31938.07044    59.49235    61.21853     2.00172
       260 31963.62090    60.77770    62.43515     1.97186
       261 31989.19179    67.09027    69.06702     1.87544
       262 32014.78315    81.37577    80.01684     1.67184
       263 32040.39497    90.86383    91.22932     1.52938
       264 32066.02729    85.50431    86.34040     1.59712
       265 32091.68011    77.60163    78.24297     1.70825
       266 32117.35346    74.30180    74.52849     1.75286
       267 32143.04734    70.57847    70.95797     1.85280
       268 32168.76178    66.11722    67.58924     1.91412
       269 32194.49679    64.10456    67.07416     1.93494
       270 32220.25238    65.41831    68.10951     1.90349
       271 32246.02858    71.85456    74.66607     1.75391
       272 32271.82541    91.53341    93.43491     1.51050
       273 32297.64287   113.15681   117.43768     1.27034
       274 32323.48098   107.34504   109.36314     1.33901
       275 32349.33977    87.35216    89.07135     1.57422
       276 32375.21924    73.36718    75.10716     1.78634
       277 32401.11941    67.37766    69.27005     1.89293
       278 32427.04031    69.45231    73.56434     1.83533
       279 32452.98194    82.99064    84.09269     1.66881
       280 32478.94433    97.44912   100.68689     1.44786
       281 32504.92748    94.04843    97.47682     1.49283
       282 32530.93143    82.94724    85.08811     1.65569
       283 32556.95617    78.43275    81.86233     1.70984
       284 32583.00174    83.20588    86.07778     1.65416
       285 32609.06814    96.67010   100.58090     1.48685
       286 32635.15539   101.04994   105.64605     1.42056
       287 32661.26352    90.63991    93.64315     1.55784
       288 32687.39253    82.42020    85.25789     1.68778
       289 32713.54244    78.92953    83.69364     1.71120
       290 32739.71327    73.38509    75.95237     1.81647
       291 32765.90504    69.04376    72.65190     1.86513
       292 32792.11777    73.78874    76.66252     1.80913
       293 32818.35146    89.10880    91.74481     1.59860
       294 32844.60614    95.25317    99.21963     1.51314
       295 32870.88183    84.48948    87.97269     1.66589
       296 32897.17853    72.29358    74.32728     1.87730
       297 32923.49628    65.18033    67.04534     2.00016
       298 32949.83507    61.75287    63.17280     2.08785
       299 32976.19494    60.17421    62.27127     2.14260
       300 33002.57590    59.42464    62.80878     2.12380
       301 33028.97796    59.50732    61.99145     2.14216
       302 33055.40114    61.78035    64.66477     2.09396
       303 33081.84546    66.47747    70.39496     1.96524
       304 33108.31094    68.09282    71.67388     1.95000
       305 33134.79759    65.54124    68.75119     2.02027
       306 33161.30543    64.09049    64.72821     2.09639
       307 33187.83447    64.59655    66.60526     2.08204
       308 33214.38474    63.87553    65.50306     2.08756
       309 33240.95625    62.23768    63.99759     2.12249
       310 33267.54901    61.65002    65.95504     2.09473
       311 33294.16305    61.81769    68.55704     2.04158
       312 33320.79838    62.81948    66.06141     2.09287
       313 33347.45502    65.01254    67.78166     2.06974
       314 33374.13298    66.19825    68.23666     2.07741
       315 33400.83229    68.23104    70.22569     2.00368
       316 33427.55296    73.73927    75.86957     1.91187
       317 33454.29500    79.54081    81.59298     1.81185
       318 33481.05843    92.66229    94.53005     1.63772
       319 33507.84328   118.01907   122.47437     1.33860
       320 33534.64955   142.16599   142.77982     1.19258
       321 33561.47727   149.89797   154.80902     1.11473
       322 33588.32646   127.85092   129.20228     1.30119
       323 33615.19712    98.32242    94.76969     1.65208
       324 33642.08928    79.53310    77.16498     1.91044
       325 33669.00295    70.18441    69.67382     2.05893
       326 33695.93815    66.07972    66.62358     2.13724
       327 33722.89490    66.17669    69.54321     2.06918
       328 33749.87322    75.19330    77.91723     1.91923
       329 33776.87311   101.29597   101.53180     1.58706
       330 33803.89461   131.49336   135.40308     1.26443
       331 33830.93773   130.75587   133.81485     1.27701
       332 33858.00248   107.89375   105.76080     1.54375
       333 33885.08888    95.14045    92.35989     1.70273
       334 33912.19695    96.93719    95.96785     1.65835
       335 33939.32671    97.87167    98.89062     1.63426
       336 33966.47817    99.27249   100.02763     1.62559
       337 33993.65135   126.06759   122.85468     1.38216
       338 34020.84627   165.65910   163.90249     1.09469
       339 34048.06295   159.40470   161.69009     1.11162
       340 34075.30140   121.07186   118.30161     1.43175
       341 34102.56164    91.05807    89.11708     1.78397
       342 34129.84369    75.22238    76.02689     1.99670
       343 34157.14757    67.54961    69.25647     2.11941
       344 34184.47328    63.99588    66.38353     2.15291
       345 34211.82086    62.30598    66.64269     2.15552
       346 34239.19032    61.36240    64.26674     2.22547
       347 34266.58167    61.81684    65.66747     2.19928
       348 34293.99494    67.56492    70.19876     2.13378
       349 34321.43013    83.07320    84.19860     1.86609
       350 34348.88728    95.59820   101.19970     1.65650
       351 34376.36639    89.85752    93.75268     1.75092
       352 34403.86748    79.09205    80.00920     1.95832
       353 34431.39057    74.86469    78.30816     1.99749
       354 34458.93569    74.57851    76.69742     2.01905
       355 34486.50284    76.60475    79.35184     1.99139
       356 34514.09204    78.58387    83.58366     1.91880
       357 34541.70331    75.36947    79.63593     1.99073
       358 34569.33667    70.25834    73.38243     2.11932
       359 34596.99214    66.13996    68.78384     2.21637
       360 34624.66974    63.05987    64.70272     2.29959
       361 34652.36947    60.89252    61.29733     2.38515
       362 34680.09137    59.43633    59.61179     2.43931
       363 34707.83544    58.57810    59.58725     2.42510
       364 34735.60171    58.13825    58.70676     2.46845
       365 34763.39019    57.99625    59.26857     2.46449
       366 34791.20090    58.10231    59.36152     2.44849
       367 34819.03386    58.10961    59.73454     2.46359
       368 34846.88909    57.89528    59.33669     2.45239
       369 34874.76660    57.70055    58.52268     2.49418
       370 34902.66642    57.61353    59.37455     2.48423
       371 34930.58855    57.61334    59.43473     2.46244
       372 34958.53302    57.77257    58.21182     2.47687
       373 34986.49985    58.57418    59.44134     2.47893
       374 35014.48905    60.95117    62.34022     2.39421
       375 35042.50064    64.05593    65.81158     2.31701
       376 35070.53464    64.63903    64.72193     2.35128
       377 35098.59107    63.55834    65.04646     2.33408
       378 35126.66994    63.80542    63.58537     2.37397
       379 35154.77127    63.62780    63.35216     2.37212
       380 35182.89509    61.70359    62.93841     2.39773
       381 35211.04141    59.79992    61.10036     2.44718
       382 35239.21024    58.69929    58.99107     2.49832
       383 35267.40161    58.18184    58.94825     2.50018
       384 35295.61553    58.03788    57.53569     2.54378
       385 35323.85202    58.03580    58.02974     2.52824
       386 35352.11110    57.93687    58.60242     2.50035
       387 35380.39279    57.81385    58.68702     2.53812
       388 35408.69711    57.77339    58.19505     2.53018
       389 35437.02407    57.81599    59.67956     2.50554
       390 35465.37368    57.94059    59.35093     2.49506
       391 35493.74598    58.18314    59.88649     2.49470
       392 35522.14098    58.74932    59.83306     2.47774
       393 35550.55869    61.18587    61.21971     2.43515
       394 35578.99914    71.27824    72.15039     2.18919
       395 35607.46234    90.57276    98.04194     1.73949
       396 35635.94831    97.91835   111.57417     1.57931
       397 35664.45707    86.38903    90.36492     1.85215
       398 35692.98863    73.68560    74.82570     2.13436
       399 35721.54302    66.91052    67.29684     2.30318
       400 35750.12026    65.65368    67.20702     2.29594
       401 35778.72035    70.69779    72.09973     2.16746
       402 35807.34333    77.87478    82.10125     1.98205
       403 35835.98921    78.90873    84.00101     1.94562
       404 35864.65800    75.67173    77.87671     2.05934
       405 35893.34972    74.48025    74.10403     2.12123
       406 35922.06440    78.07979    77.19150     2.05859
       407 35950.80205    80.60157    77.31912     2.04456
       408 35979.56270    79.32260    75.43712     2.10700
       409 36008.34635    74.47160    70.31603     2.21174
       410 36037.15302    68.26336    65.80319     2.30674
       411 36065.98275    64.47379    63.00844     2.36099
       412 36094.83553    65.28668    64.40660     2.33357
       413 36123.71140    70.74749    71.82232     2.18232
       414 36152.61037    73.75603    75.20829     2.07500
       415 36181.53246    71.00125    71.74520     2.16420
       416 36210.47768    68.96061    69.04830     2.20805
       417 36239.44607    68.40752    70.18912     2.19078
       418 36268.43762    65.71833    65.97737     2.27778
       419 36297.45237    62.38442    62.40195     2.38415
       420 36326.49034    60.24205    59.06883     2.47105
       421 36355.55153    59.13800    58.12398     2.49367
       422 36384.63597    58.59146    57.21284     2.49977
       423 36413.74368    58.41122    57.11355     2.48652
       424 36442.87467    58.85542    57.60717     2.49720
       425 36472.02897    61.25782    59.17528     2.43053
       426 36501.20660    65.97556    63.82344     2.29488
       427 36530.40756    67.92601    67.87220     2.25032
       428 36559.63189    65.26128    63.95447     2.32680
       429 36588.87959    62.23622    60.50192     2.41645
       430 36618.15070    60.67674    58.16738     2.44899
       431 36647.44522    60.36006    59.63810     2.43590
       432 36676.76317    62.11651    62.13856     2.36406
       433 36706.10458    72.20906    72.52065     2.10749
       434 36735.46947    99.82016   102.94260     1.63388
       435 36764.85784   125.27805   129.65952     1.36841
       436 36794.26973   116.85269   116.50648     1.47693
       437 36823.70514    93.59119    90.71145     1.78589
       438 36853.16411    77.49647    75.48590     2.04738
       439 36882.64664    69.55750    66.47973     2.22570
       440 36912.15276    66.30746    63.46203     2.29977
       441 36941.68248    67.96124    65.18048     2.24954
       442 36971.23583    76.75380    72.80355     2.08017
       443 37000.81281    84.54465    82.42024     1.89014
       444 37030.41346    80.74399    79.57351     1.95670
       445 37060.03779    71.96264    68.65283     2.15036
       446 37089.68583    65.90790    63.22654     2.28453
       447 37119.35757    63.95012    62.17716     2.31138
       448 37149.05306    68.03071    66.61909     2.18417
       449 37178.77230    77.58335    75.68732     1.99746
       450 37208.51532    80.38271    79.59218     1.91342
       451 37238.28213    73.58184    72.30622     2.06120
       452 37268.07276    66.56447    65.08077     2.23088
       453 37297.88722    62.54691    61.75746     2.30979
       454 37327.72553    60.49190    58.96424     2.36019
       455 37357.58771    59.43049    57.24037     2.39394
       456 37387.47378    58.88460    56.38096     2.40741
       457 37417.38376    58.62962    55.97682     2.42071
       458 37447.31766    58.55597    56.12699     2.41959
       459 37477.27552    58.63117    58.18020     2.33595
       460 37507.25734    58.98971    58.50499     2.33084
       461 37537.26314    60.33725    59.42357     2.31422
       462 37567.29295    63.69038    61.12930     2.25310
       463 37597.34679    67.24963    66.40943     2.14969
       464 37627.42467    68.31312    67.52106     2.11026
       465 37657.52661    72.19416    71.30723     2.01813
       466 37687.65263    87.10257    86.59144     1.75786
       467 37717.80275   104.80749   106.13110     1.50232
       468 37747.97699   116.05402   115.20435     1.39190
       469 37778.17537   134.20683   135.41344     1.22845
       470 37808.39791   140.44750   144.92622     1.15919
       471 37838.64463   120.67743   124.81285     1.30877
       472 37868.91555   104.62601   108.08418     1.46341
       473 37899.21068   122.99735   122.69374     1.32962
       474 37929.53005   172.67916   169.13354     1.00820
       475 37959.87367   186.14753   190.28249     0.91407
       476 37990.24157   149.34900   149.40282     1.12588
       477 38020.63376   114.38125   111.64717     1.42007
       478 38051.05027    99.15788    95.73037     1.58926
       479 38081.49111    98.50996    98.07714     1.56627
       480 38111.95630   102.58969   104.79077     1.48329
       481 38142.44587    95.39155   100.01278     1.53416
       482 38172.95983    81.29073    82.55581     1.77275
       483 38203.49819    70.86090    71.42588     1.95791
       484 38234.06099    65.12003    64.12411     2.12594
       485 38264.64824    62.02084    60.91517     2.18752
       486 38295.25996    60.26983    60.50116     2.18959
       487 38325.89617    59.26000    59.66226     2.22638
       488 38356.55688    58.67301    57.79407     2.25122
       489 38387.24213    58.34249    57.75676     2.29123
       490 38417.95192    58.16069    57.83642     2.25355
       491 38448.68629    58.04682    57.54673     2.25461
       492 38479.44523    57.97179    56.02621     2.29220
       493 38510.22879    57.92308    56.91357     2.25302
       494 38541.03697    57.90398    56.49173     2.30640
       495 38571.86980    57.89155    57.33401     2.27353
       496 38602.72730    57.89388    57.46785     2.25035
       497 38633.60948    57.93251    56.90340     2.25440
       498 38664.51637    58.00792    55.83213     2.25845
       499 38695.44798    58.13786    55.72010     2.28563
       500 38726.40434    58.37470    57.56682     2.24506
       501 38757.38546    59.32643    59.62510     2.17362
       502 38788.39137    62.83060    62.13304     2.12018
       503 38819.42208    70.13330    73.30289     1.88209
       504 38850.47762    77.80991    81.29012     1.73358
       505 38881.55800    81.27702    81.86529     1.71468
       506 38912.66325    77.46331    76.64442     1.80281
       507 38943.79338    70.47170    67.61400     1.97744
       508 38974.94842    65.44654    61.09467     2.08233
       509 39006.12837    62.94346    61.00931     2.10943
       510 39037.33328    62.06912    60.36382     2.10628
       511 39068.56314    62.55857    61.84052     2.06959
       512 39099.81799    66.63935    68.04685     1.92025
       513 39131.09785    85.80963    86.85900     1.61551
       514 39162.40273   137.35045   135.83367     1.12845
       515 39193.73265   194.98793   196.75774     0.82193
       516 39225.08764   200.20470   205.89691     0.78722
       517 39256.46771   171.97731   168.06537     0.93073
       518 39287.87288   146.49865   136.48091     1.10329
       519 39319.30318   120.01775   108.96722     1.32397
       520 39350.75862    95.41103    88.10255     1.54886
       521 39382.23923    79.21441    74.10070     1.76628
       522 39413.74502    70.16822    66.73536     1.88509
       523 39445.27602    65.18826    62.29503     1.99151
       524 39476.83224    62.48416    60.20982     2.02057
       525 39508.41370    61.34800    60.27078     2.01381
       526 39540.02043    61.34341    60.66110     2.00535
       527 39571.65245    61.66631    61.13536     1.97912
       528 39603.30977    62.19629    59.90407     1.98801
       529 39634.99242    62.47136    62.15090     1.96178
       530 39666.70041    61.55140    60.56296     1.95613
       531 39698.43377    60.28108    58.20686     2.00159
       532 39730.19252    59.53677    57.47567     2.03078
       533 39761.97667    59.64360    57.36751     2.02165
       534 39793.78626    61.43025    60.67372     1.92331
       535 39825.62128    64.78300    66.35380     1.80890
       536 39857.48178    66.16507    70.63803     1.73515
       537 39889.36777    64.58164    66.98536     1.78051
       538 39921.27926    63.02599    64.23785     1.83925
       539 39953.21628    63.74253    64.92363     1.79995
       540 39985.17886    72.80163    76.38198     1.60024
       541 40017.16700   106.16381   107.27027     1.22387
       542 40049.18073   157.80574   155.39468     0.90451
       543 40081.22008   170.18019   170.91548     0.82740
       544 40113.28505   136.78461   135.46169     0.99839
       545 40145.37568   102.42265    99.37430     1.28078
       546 40177.49198    82.31316    79.95465     1.50995
       547 40209.63398    71.84756    69.60036     1.66389
       548 40241.80168    66.48600    65.13652     1.72604
       549 40273.99513    63.50624    62.20878     1.77484
       550 40306.21432    61.40261    60.34168     1.82363
       551 40338.45929    59.92793    58.94334     1.83568
       552 40370.73006    59.02058    57.84350     1.85830
       553 40403.02664    58.47607    57.37826     1.84580
       554 40435.34907    58.13794    56.88184     1.84847
       555 40467.69735    57.93930    56.63059     1.82756
       556 40500.07150    57.83392    56.47508     1.83601
       557 40532.47156    57.77706    56.57327     1.81925
       558 40564.89754    57.74678    56.59680     1.82270
       559 40597.34946    57.73619    57.04773     1.80110
       560 40629.82734    57.74394    56.65551     1.80553
       561 40662.33120    57.76993    55.14631     1.80595
       562 40694.86106    57.82244    56.24145     1.76897
       563 40727.41695    57.91313    57.14175     1.76741
       564 40759.99888    58.06346    57.92044     1.72683
       565 40792.60688    58.32945    58.89846     1.71043
       566 40825.24097    59.00645    59.12072     1.72333
       567 40857.90116    61.95550    61.44221     1.64321
       568 40890.58748    72.79811    71.69399     1.46818
       569 40923.29995    93.37079    91.76622     1.21279
       570 40956.03859   105.22964   104.47280     1.10254
       571 40988.80342    96.08152    96.33104     1.16545
       572 41021.59447    80.85294    79.29318     1.34696
       573 41054.41174    70.50607    69.93647     1.46326
       574 41087.25527    64.85994    63.80154     1.55791
       575 41120.12508    61.78030    61.46930     1.57369
       576 41153.02118    60.05301    60.79508     1.61138
       577 41185.94359    59.07034    59.48043     1.61065
       578 41218.89235    58.50851    58.65605     1.62627
       579 41251.86746    58.18785    58.21728     1.63556
       580 41284.86896    58.00599    58.72792     1.61579
       581 41317.89685    57.90643    58.70666     1.60572
       582 41350.95117    57.86996    59.83703     1.59820
       583 41384.03193    57.88480    58.57622     1.57781
       584 41417.13915    57.94093    58.75760     1.60880
       585 41450.27287    58.03770    58.56315     1.59049
       586 41483.43308    58.18829    57.96834     1.57298
       587 41516.61983    58.42506    59.55217     1.56233
       588 41549.83313    58.83729    61.78305     1.50501
       589 41583.07299    59.96924    62.58012     1.48706
       590 41616.33945    64.66473    67.91452     1.40314
       591 41649.63252    80.52294    82.79252     1.20487
       592 41682.95223   107.70089   111.23868     0.96268
       593 41716.29859   120.82702   125.23482     0.86455
       594 41749.67163   107.92428   111.39113     0.94813
       595 41783.07137    89.47238    94.24542     1.08086
       596 41816.49782    80.04692    83.30164     1.18739
       597 41849.95102    83.16368    83.56112     1.17175
       598 41883.43098    93.00707    93.34719     1.07370
       599 41916.93773    93.21952    98.24281     1.03376
       600 41950.47128    82.63161    80.90494     1.18628
       601 41984.03165    72.35413    71.60363     1.29607
       602 42017.61888    66.20936    66.11341     1.39416
       603 42051.23298    62.95628    62.34133     1.42048
       604 42084.87396    61.40504    58.96201     1.47619
       605 42118.54186    61.52046    59.80883     1.48095
       606 42152.23669    63.84697    62.30408     1.44000
       607 42185.95848    66.69816    63.03585     1.39409
       608 42219.70725    66.95236    64.90660     1.37406
       609 42253.48302    65.86651    63.71529     1.38468
       610 42287.28580    65.58032    64.43559     1.36094
       611 42321.11563    66.97720    69.66464     1.30827
       612 42354.97252    77.29747    78.78874     1.17959
       613 42388.85650   114.11931   113.71471     0.88777
       614 42422.76759   172.99584   171.62931     0.62187
       615 42456.70580   194.94127   199.46931     0.54476
       616 42490.67117   162.18896   165.27542     0.64219
       617 42524.66370   120.39657   115.50548     0.85837
       618 42558.68343    93.44945    87.99706     1.06482
       619 42592.73038    79.29035    76.23037     1.18075
       620 42626.80456    72.68634    70.42643     1.25710
       621 42660.90601    70.69919    71.19784     1.23096
       622 42695.03473    73.13036    74.82006     1.18814
       623 42729.19076    77.81238    79.74538     1.11947
       624 42763.37411    77.67788    82.39960     1.09049
       625 42797.58481    73.56322    76.26547     1.16226
       626 42831.82288    74.61128    74.44435     1.16561
       627 42866.08834    88.72529    84.20116     1.05821
       628 42900.38121   108.02971   107.11677     0.87994
       629 42934.70151   109.36781   108.28480     0.86508
       630 42969.04928    94.13337    91.45240     0.98829
       631 43003.42452    79.63664    76.28596     1.12606
       632 43037.82725    72.19337    70.47329     1.19095
       633 43072.25752    71.71797    69.95967     1.20006
       634 43106.71532    77.93291    79.05155     1.08275
       635 43141.20069    89.10711    82.12598     1.03454
       636 43175.71366    96.11716    88.92148     0.97453
       637 43210.25423    90.13892    84.57377     1.02034
       638 43244.82243    78.79875    72.23048     1.14878
       639 43279.41829    70.40423    65.82971     1.21002
       640 43314.04182    65.76379    63.45994     1.24150
       641 43348.69306    63.62550    60.69594     1.27682
       642 43383.37201    63.74500    62.17740     1.23857
       643 43418.07871    69.84212    70.76100     1.13514
       644 43452.81317    92.48661    89.23711     0.94910
       645 43487.57542   132.59910   127.46080     0.71624
       646 43522.36548   156.09645   148.03174     0.62582
       647 43557.18337   143.23905   136.07737     0.66318
       648 43592.02912   119.71925   114.82475     0.76441
       649 43626.90274   100.28350    96.63746     0.87354
       650 43661.80427    84.60238    81.67464     0.99100
       651 43696.73371    73.68154    71.47380     1.07759
       652 43731.69110    67.28004    64.88180     1.16958
       653 43766.67645    63.78887    60.96297     1.19163
       654 43801.68979    62.13556    60.84544     1.20720
       655 43836.73114    62.64535    62.14493     1.17870
       656 43871.80053    67.30498    66.52275     1.10317
       657 43906.89797    75.52414    75.78853     1.01493
       658 43942.02349    79.25136    79.96876     0.95663
       659 43977.17710    75.47385    76.70621     1.00078
       660 44012.35885    71.81500    72.55920     1.02706
       661 44047.56873    78.18549    77.52759     0.97203
       662 44082.80679   103.55001    99.78496     0.79761
       663 44118.07303   134.84839   132.42047     0.63589
       664 44153.36749   137.23275   135.71240     0.61990
       665 44188.69019   114.00805   111.66058     0.72400
       666 44224.04114    91.98615    89.88049     0.84662
       667 44259.42037    79.37696    76.34331     0.95988
       668 44294.82791    72.01818    71.08626     1.01032
       669 44330.26377    67.10398    65.01490     1.06536
       670 44365.72798    65.05534    63.58813     1.09214
       671 44401.22056    67.37125    65.59576     1.05872
       672 44436.74154    73.18208    69.55413     0.99689
       673 44472.29093    75.79819    72.63842     0.95318
       674 44507.86877    72.11187    69.77334     0.99096
       675 44543.47506    66.76101    65.71842     1.03252
       676 44579.10984    63.08150    60.56623     1.09369
       677 44614.77313    61.32774    63.38221     1.05990
       678 44650.46495    61.33400    61.95250     1.06318
       679 44686.18532    62.68025    65.48338     1.00717
       680 44721.93427    63.48415    66.11512     1.01031
       681 44757.71182    62.61948    65.39786     1.02007
       682 44793.51798    61.35457    63.83765     1.01707
       683 44829.35280    61.24317    63.33886     1.03703
       684 44865.21628    65.09282    67.11855     1.00069
       685 44901.10845    78.16651    78.48680     0.87118
       686 44937.02934    97.47288    96.34870     0.74569
       687 44972.97896   103.57052   105.82173     0.69145
       688 45008.95735    92.15879    94.53456     0.75190
       689 45044.96451    78.23598    80.13826     0.85523
       690 45081.00049    69.19407    68.56013     0.94970
       691 45117.06529    64.19129    65.32919     0.99824
       692 45153.15894    61.42835    64.97843     1.00021
       693 45189.28146    59.87558    61.58854     1.01509
       694 45225.43289    58.99418    62.02204     1.01395
       695 45261.61324    58.48860    63.17143     1.01363
       696 45297.82253    58.19457    62.02774     1.00512
       697 45334.06079    58.01960    61.05964     1.02259
       698 45370.32803    57.90797    62.54012     1.01980
       699 45406.62430    57.85035    61.96019     1.01546
       700 45442.94960    57.84963    62.03224     1.00702
       701 45479.30396    57.88851    60.74730     1.01919
       702 45515.68740    57.94856    60.42740     1.01345
       703 45552.09995    58.02685    62.36638     0.99916
       704 45588.54163    58.19594    61.81240     1.01487
       705 45625.01246    58.42117    59.50662     1.02769
       706 45661.51247    58.90405    62.69998     1.00417
       707 45698.04168    60.74472    64.21390     0.98013
       708 45734.60011    67.20361    71.44851     0.90842
       709 45771.18779    80.29911    85.27608     0.79733
       710 45807.80475    91.15442    98.14870     0.71189
       711 45844.45099    89.03704    97.95797     0.71394
       712 45881.12655    79.51077    84.53297     0.80121
       713 45917.83145    70.95663    74.05753     0.88402
       714 45954.56572    65.53401    67.30313     0.94756
       715 45991.32937    62.47742    64.92143     0.95738
       716 46028.12243    60.83476    62.04780     1.00355
       717 46064.94493    59.99794    59.96882     1.02141
       718 46101.79689    59.64967    61.19116     1.01459
       719 46138.67832    59.62384    60.22343     1.01975
       720 46175.58927    59.84041    60.90099     1.00591
       721 46212.52974    60.31452    60.95224     1.00160
       722 46249.49976    61.36577    61.07444     0.98972
       723 46286.49936    64.65757    64.63072     0.96665
       724 46323.52856    76.93098    77.01030     0.84423
       725 46360.58738   108.10983   106.57569     0.65452
       726 46397.67585   148.03241   150.83734     0.49023
       727 46434.79399   165.35245   172.26748     0.43741
       728 46471.94183   168.82570   172.30997     0.43432
       729 46509.11938   190.33017   189.40470     0.39780
       730 46546.32668   210.48616   210.31736     0.36444
       731 46583.56374   189.66066   192.43805     0.39425
       732 46620.83059   145.70586   147.03244     0.49492
       733 46658.12726   109.43642   110.01501     0.62703
       734 46695.45376    87.62740    87.74336     0.74905
       735 46732.81012    75.56635    74.96356     0.84599
       736 46770.19637    68.92905    70.33064     0.88782
       737 46807.61253    65.31547    64.84794     0.93352
       738 46845.05862    63.45620    63.68667     0.93664
       739 46882.53466    62.70508    62.44399     0.94748
       740 46920.04069    62.85815    62.02993     0.94859
       741 46957.57672    64.81934    64.56497     0.90225
       742 46995.14278    73.35880    75.70179     0.81306
       743 47032.73890    98.04290   100.96527     0.64974
       744 47070.36509   138.44323   142.47093     0.48527
       745 47108.02138   170.99185   178.73178     0.39891
       746 47145.70780   190.00643   192.15580     0.37151
       747 47183.42436   218.14537   219.61175     0.32864
       748 47221.17110   238.72672   243.47671     0.29800
       749 47258.94804   214.18064   226.21224     0.31729
       750 47296.75520   162.71633   170.42536     0.40685
       751 47334.59260   119.27013   123.27407     0.53324
       752 47372.46028    92.78340    93.42489     0.65543
       753 47410.35825    78.16058    78.75992     0.74715
       754 47448.28653    70.34249    70.75360     0.81131
       755 47486.24516    66.54021    66.60375     0.84151
       756 47524.23416    65.09961    68.28764     0.82864
       757 47562.25355    64.66471    67.78567     0.82384
       758 47600.30335    64.14146    63.31273     0.85166
       759 47638.38359    64.68428    64.90152     0.84848
       760 47676.49430    68.28227    67.91200     0.82290
       761 47714.63549    73.68860    69.15145     0.79591
       762 47752.80720    76.39554    71.74445     0.78422
       763 47791.00945    74.06969    69.19847     0.80372
       764 47829.24225    69.19912    66.28907     0.80093
       765 47867.50565    65.49579    63.37713     0.83077
       766 47905.79965    64.76009    64.53505     0.81262
       767 47944.12429    67.07048    65.92117     0.79366
       768 47982.47959    69.72316    67.91187     0.77642
       769 48020.86558    69.19931    70.45207     0.76012
       770 48059.28227    66.25854    65.91402     0.78807
       771 48097.72969    63.49138    63.05764     0.81915
       772 48136.20788    61.87865    64.16546     0.80735
       773 48174.71684    61.20484    61.32814     0.81490
       774 48213.25662    61.17534    60.67434     0.80037
       775 48251.82722    61.86457    64.98167     0.74839
       776 48290.42868    64.26946    65.03399     0.71998
       777 48329.06103    74.22606    76.48078     0.64986
       778 48367.72428   108.23181   106.08488     0.49727
       779 48406.41846   177.62953   171.58310     0.34366
       780 48445.14359   242.26107   243.89485     0.25467
       781 48483.89971   239.90418   247.25436     0.25445
       782 48522.68683   187.04459   188.91985     0.32097
       783 48561.50497   134.45028   132.64655     0.43457
       784 48600.35418   100.84369    99.84366     0.54893
       785 48639.23446    82.11406    78.11637     0.65382
       786 48678.14585    71.83266    71.92940     0.71332
       787 48717.08837    66.12521    63.85178     0.76639
       788 48756.06204    62.99613    61.94872     0.78168
       789 48795.06689    61.23329    61.70651     0.76910
       790 48834.10294    60.18225    59.22246     0.79335
       791 48873.17022    59.53330    58.64456     0.79478
       792 48912.26876    59.13893    58.91242     0.80719
       793 48951.39857    58.91800    56.30474     0.81415
       794 48990.55969    58.79497    59.77115     0.78598
       795 49029.75214    58.72795    58.06647     0.77853
       796 49068.97594    58.69537    57.96374     0.78045
       797 49108.23112    58.69409    57.16828     0.80010
       798 49147.51771    58.74409    58.96493     0.76073
       799 49186.83572    58.92420    58.68060     0.77428
       800 49226.18519    59.34406    59.83412     0.74777
       801 49265.56614    59.89608    56.69438     0.77380
       802 49304.97859    60.17028    59.09116     0.75346
       803 49344.42257    60.09349    60.25673     0.74078
       804 49383.89811    60.05417    59.88374     0.73995
       805 49423.40523    60.51915    60.65602     0.73897
       806 49462.94396    61.89672    62.41320     0.71751
       807 49502.51431    64.11635    63.30974     0.70806
       808 49542.11632    65.74768    66.63091     0.67110
       809 49581.75001    66.22060    69.72156     0.65796
       810 49621.41541    67.67043    73.23792     0.64266
       811 49661.11255    77.07411    82.78739     0.57564
       812 49700.84144   113.18415   116.59494     0.43568
       813 49740.60211   194.91513   191.37066     0.28409
       814 49780.39459   286.68711   285.03869     0.19852
       815 49820.21891   303.62406   310.67814     0.18221
       816 49860.07508   243.11184   251.08809     0.21869
       817 49899.96314   170.93651   180.54998     0.29317
       818 49939.88311   122.00037   125.76862     0.39683
       819 49979.83502    95.25637    94.28889     0.49448
       820 50019.81889    81.56282    86.03568     0.53686
       821 50059.83474    73.69125    76.75383     0.57698
       822 50099.88261    68.20015    69.77968     0.61024
       823 50139.96252    64.41771    67.70180     0.63298
       824 50180.07449    62.07740    65.08729     0.65425
       825 50220.21855    60.70588    63.46917     0.65220
       826 50260.39472    59.93527    64.59668     0.65531
       827 50300.60304    59.52032    61.68084     0.65993
       828 50340.84352    59.30249    63.56335     0.65171
       829 50381.11619    59.19623    63.10957     0.66069
       830 50421.42109    59.17031    58.67044     0.67097
       831 50461.75822    59.22438    60.15853     0.66993
       832 50502.12763    59.39300    58.41964     0.66600
       833 50542.52933    59.88254    60.45834     0.65991
       834 50582.96336    61.75365    64.68303     0.62609
       835 50623.42973    68.34699    70.17649     0.59604
       836 50663.92847    83.43530    81.19741     0.52984
       837 50704.45961   101.52722    97.00859     0.46348
       838 50745.02318   106.62026   105.24487     0.43398
       839 50785.61920    96.10074    92.76064     0.47607
       840 50826.24770    81.93457    81.17189     0.52925
       841 50866.90869    71.76302    74.76570     0.55500
       842 50907.60222    66.01966    66.95859     0.61180
       843 50948.32830    63.01944    66.84470     0.60863
       844 50989.08696    61.55933    63.46410     0.62427
       845 51029.87823    61.01982    64.41228     0.62307
       846 51070.70214    61.22687    64.60632     0.62015
       847 51111.55870    63.04183    69.04981     0.59407
       848 51152.44795    71.09025    77.15786     0.54399
       849 51193.36990    95.67566    97.38167     0.45077
       850 51234.32460   138.84401   142.37897     0.33535
       851 51275.31206   171.00896   173.06256     0.28534
       852 51316.33231   162.13075   168.16459     0.29046
       853 51357.38537   129.25506   132.35242     0.35591
       854 51398.47128    99.67843   102.04469     0.43915
       855 51439.59006    81.55799    86.84143     0.51273
       856 51480.74173    72.49430    75.28860     0.55164
       857 51521.92633    70.49294    72.82038     0.56928
       858 51563.14387    74.68782    76.65939     0.54220
       859 51604.39438    80.35174    79.23493     0.53016
       860 51645.67790    80.13067    76.68786     0.54768
       861 51686.99444    74.23774    73.96756     0.56946
       862 51728.34404    67.89068    66.34325     0.61434
       863 51769.72671    63.63821    64.31171     0.61179
       864 51811.14249    61.23281    62.92435     0.63720
       865 51852.59141    59.92578    61.64499     0.63894
       866 51894.07348    59.20511    61.63125     0.62990
       867 51935.58874    58.79861    58.16486     0.66716
       868 51977.13721    58.56277    57.62298     0.65477
       869 52018.71892    58.42146    58.10369     0.67016
       870 52060.33389    58.33656    56.60587     0.67451
       871 52101.98216    58.29034    57.75695     0.66412
       872 52143.66375    58.27860    57.18857     0.67396
       873 52185.37868    58.28990    56.85039     0.67471
       874 52227.12698    58.31956    56.23591     0.68156
       875 52268.90868    58.36987    55.99596     0.67428
       876 52310.72381    58.45536    54.31575     0.68750
       877 52352.57239    58.58485    57.63009     0.66961
       878 52394.45445    59.14037    57.71514     0.65914
       879 52436.37001    61.16642    59.62990     0.64704
       880 52478.31911    66.31938    64.20930     0.61994
       881 52520.30176    74.01344    69.94321     0.57754
       882 52562.31800    78.81300    75.23478     0.54275
       883 52604.36786    77.00390    72.77967     0.56063
       884 52646.45135    72.57993    66.83862     0.58714
       885 52688.56851    70.65418    65.68454     0.58958
       886 52730.71937    71.43761    68.33112     0.57456
       887 52772.90394    71.06449    70.69354     0.55247
       888 52815.12227    68.01543    67.21392     0.57576
       889 52857.37436    64.34846    63.50522     0.60591
       890 52899.66026    61.69997    61.77546     0.61852
       891 52941.97999    60.18695    56.29641     0.64231
       892 52984.33357    59.40184    58.96914     0.62575
       893 53026.72104    59.03182    56.92946     0.62572
       894 53069.14242    58.92162    57.10607     0.63699
       895 53111.59773    59.09363    59.74626     0.61388
       896 53154.08701    59.98008    59.22837     0.61635
       897 53196.61028    63.09678    61.09424     0.60059
       898 53239.16757    70.88783    70.42956     0.54186
       899 53281.75890    82.77652    86.75713     0.45800
       900 53324.38431    91.24539    94.21686     0.42419
       901 53367.04382    89.84861    96.32390     0.42001
       902 53409.73745    82.12578    86.71182     0.45233
       903 53452.46524    73.90066    78.95742     0.49081
       904 53495.22721    67.67549    70.03254     0.51963
       905 53538.02340    63.65971    63.39657     0.56594
       906 53580.85381    61.32601    60.63300     0.57366
       907 53623.71850    60.05535    60.15966     0.56998
       908 53666.61747    59.38052    58.51711     0.58986
       909 53709.55077    59.02987    58.50984     0.56884
       910 53752.51841    58.92647    56.11889     0.59512
       911 53795.52042    59.02131    56.54244     0.60089
       912 53838.55684    59.41570    57.83030     0.57491
       913 53881.62768    60.37046    56.09672     0.56512
       914 53924.73299    61.79119    58.88708     0.56746
       915 53967.87277    62.81313    60.38208     0.54850
       916 54011.04707    62.80994    62.09351     0.54261
       917 54054.25591    62.44009    60.28812     0.55495
       918 54097.49931    63.26650    61.50526     0.53663
       919 54140.77731    68.84380    66.19173     0.51027
       920 54184.08993    85.95342    82.41721     0.43362
       921 54227.43721   116.92025   112.81080     0.33992
       922 54270.81916   144.78268   139.34498     0.28441
       923 54314.23581   145.57655   139.39334     0.28450
       924 54357.68720   123.31407   118.24515     0.31953
       925 54401.17335    98.19649    93.36207     0.38426
       926 54444.69429    80.85012    78.14361     0.43413
       927 54488.25004    71.12822    68.84031     0.48047
       928 54531.84064    66.23716    65.53714     0.49149
       929 54575.46612    64.35853    64.52079     0.49427
       930 54619.12649    64.63373    63.68506     0.49927
       931 54662.82179    66.00782    62.48703     0.50432
       932 54706.55205    66.94703    62.31430     0.50076
       933 54750.31729    67.61545    64.05685     0.48456
       934 54794.11754    72.23034    69.69943     0.46247
       935 54837.95284    90.75955    89.16382     0.38202
       936 54881.82320   133.48305   133.31517     0.27547
       937 54925.72866   189.11580   193.15980     0.20096
       938 54969.66924   216.26825   221.36272     0.17889
       939 55013.64498   194.55486   194.60506     0.20099
       940 55057.65589   149.97975   151.12173     0.24613
       941 55101.70202   111.53621   109.93302     0.32179
       942 55145.78338    87.54741    86.08957     0.38548
       943 55189.90001    74.42462    74.21319     0.42757
       944 55234.05193    67.56833    65.67237     0.45804
       945 55278.23917    63.90910    63.45846     0.47757
       946 55322.46176    61.90487    62.65126     0.47122
       947 55366.71973    60.77557    63.37973     0.46648
       948 55411.01310    60.13993    57.44319     0.49616
       949 55455.34191    59.86460    58.87468     0.48797
       950 55499.70619    60.07949    56.25566     0.50132
       951 55544.10595    60.82596    61.01079     0.47905
       952 55588.54124    61.68428    60.32295     0.47844
       953 55633.01207    61.87528    57.26358     0.49158
       954 55677.51848    61.30637    57.13189     0.49290
       955 55722.06049    60.55344    57.83898     0.48056
       956 55766.63814    60.02767    57.86542     0.48769
       957 55811.25145    59.78451    57.47133     0.47199
       958 55855.90045    59.75027    58.27823     0.47372
       959 55900.58518    59.87926    57.52003     0.47355
       960 55945.30564    60.25722    58.00735     0.46617
       961 55990.06189    61.37039    60.35169     0.45632
       962 56034.85394    64.51080    60.30280     0.44968
       963 56079.68182    71.04731    63.99170     0.43065
       964 56124.54557    79.50518    71.78839     0.40242
       965 56169.44520    84.33633    74.64712     0.38380
       966 56214.38076    83.07607    76.53833     0.38008
       967 56259.35226    81.26035    76.00611     0.36583
       968 56304.35974    90.87960    88.07460     0.33513
       969 56349.40323   128.76073   130.01197     0.24999
       970 56394.48276   200.77493   201.53143     0.17000
       971 56439.59834   271.48892   261.97148     0.13287
       972 56484.75002   283.02477   281.21769     0.12582
       973 56529.93782   233.71339   236.24808     0.14623
       974 56575.16177   169.12808   181.77508     0.18215
       975 56620.42190   120.70731   133.01754     0.24030
       976 56665.71824    92.32819   100.93778     0.29730
       977 56711.05081    77.20305    87.05148     0.32934
       978 56756.41965    69.33526    74.33064     0.37069
       979 56801.82479    65.22160    70.55222     0.38226
       980 56847.26625    62.97645    68.32587     0.39235
       981 56892.74406    61.72141    65.06471     0.40640
       982 56938.25826    61.02799    62.17436     0.40713
       983 56983.80886    60.68569    61.57547     0.40663
       984 57029.39591    60.57214    62.10119     0.41428
       985 57075.01943    60.62414    64.66648     0.40300
       986 57120.67944    60.84921    63.64924     0.40676
       987 57166.37599    61.43524    62.72478     0.40546
       988 57212.10909    63.33635    65.47690     0.39357
       989 57257.87877    69.72784    74.04855     0.36436
       990 57303.68508    86.20020    87.96730     0.31306
       991 57349.52803   114.08367   113.08371     0.26185
       992 57395.40765   139.82877   136.94587     0.22567
       993 57441.32397   143.39579   143.23993     0.21582
       994 57487.27703   125.18284   127.57280     0.23779
       995 57533.26685   101.79542   104.99708     0.27764
       996 57579.29347    85.01522    91.38953     0.30694
       997 57625.35690    76.61779    83.68592     0.32576
       998 57671.45719    73.31263    80.91664     0.33975
       999 57717.59435    71.35813    78.99759     0.34081
      1000 57763.76843    69.49142    79.93889     0.33763
      1001 57809.97944    68.84513    75.07777     0.34240
      1002 57856.22743    73.14028    84.60994     0.32700
      1003 57902.51241    92.40145   101.09918     0.28798
      1004 57948.83442   142.45988   148.14262     0.21103
      1005 57995.19349   222.94304   229.07284     0.14306
      1006 58041.58964   288.75247   288.10479     0.11717
      1007 58088.02291   286.72184   293.82390     0.11448
      1008 58134.49333   228.92380   236.19263     0.13959
      1009 58181.00093   163.10197   167.01892     0.18812
      1010 58227.54573   116.35679   127.22943     0.23887
      1011 58274.12776    89.66766    97.19851     0.29808
      1012 58320.74707    75.63049    86.31824     0.32528
      1013 58367.40366    68.31344    75.24815     0.36095
      1014 58414.09759    64.40719    72.42423     0.37478
      1015 58460.82886    62.23413    67.19525     0.38768
      1016 58507.59753    60.97715    67.99906     0.39303
      1017 58554.40361    60.24168    65.56519     0.40576
      1018 58601.24713    59.80409    66.71216     0.40772
      1019 58648.12813    59.52373    65.36649     0.40193
      1020 58695.04663    59.28570    65.37840     0.40412
      1021 58742.00267    59.11209    64.20475     0.39738
      1022 58788.99627    58.98355    62.07321     0.40828
      1023 58836.02747    58.88321    62.04805     0.41250
      1024 58883.09629    58.80269    62.04309     0.41985
      1025 58930.20276    58.73672    60.80146     0.43160
      1026 58977.34693    58.67923    65.02255     0.40956
      1027 59024.52880    58.63151    61.92875     0.42184
      1028 59071.74843    58.59183    61.06315     0.42607
      1029 59119.00583    58.55832    61.06590     0.43348
      1030 59166.30103    58.52976    62.93582     0.42152
      1031 59213.63407    58.50523    59.42662     0.43645
      1032 59261.00498    58.48411    59.53522     0.43274
      1033 59308.41378    58.43638    59.20801     0.42816
      1034 59355.86051    58.32043    56.95091     0.44900
      1035 59403.34520    58.26548    63.75695     0.41822
      1036 59450.86788    58.24201    60.56735     0.43240
      1037 59498.42857    58.23352    62.21486     0.43162
      1038 59546.02732    58.23242    61.38065     0.43649
      1039 59593.66414    58.23529    60.17496     0.42903
      1040 59641.33907    58.24075    62.13763     0.43335
      1041 59689.05214    58.24849    60.71850     0.43124
      1042 59736.80338    58.25896    59.28153     0.45070
      1043 59784.59282    58.27375    58.67585     0.43259
      1044 59832.42050    58.29896    62.49653     0.43106
      1045 59880.28644    58.36285    60.70258     0.43770
      1046 59928.19066    58.56616    60.26131     0.44620
      1047 59976.13322    59.11929    60.99681     0.44055
      1048 60024.11412    60.17289    64.03530     0.43039
      1049 60072.13341    61.39855    62.79461     0.43063
      1050 60120.19112    61.94745    62.09234     0.42869
      1051 60168.28727    61.45956    62.89888     0.42427
      1052 60216.42190    60.46085    60.81609     0.43960
      1053 60264.59504    59.56052    57.99400     0.44738
      1054 60312.80672    58.98244    58.62771     0.44028
      1055 60361.05696    58.66939    63.51841     0.42962
      1056 60409.34581    58.51119    56.07944     0.46663
      1057 60457.67329    58.43302    57.62793     0.45682
      1058 60506.03942    58.39519    56.36541     0.44546
      1059 60554.44426    58.37825    58.44189     0.43936
      1060 60602.88781    58.37299    55.12438     0.45905
      1061 60651.37012    58.37495    57.36521     0.44442
      1062 60699.89122    58.38171    56.24879     0.45287
      1063 60748.45113    58.39205    54.84331     0.45280
      1064 60797.04989    58.40564    58.61188     0.44638
      1065 60845.68753    58.42271    57.96504     0.44229
      1066 60894.36408    58.44392    58.19365     0.43966
      1067 60943.07957    58.47033    61.15414     0.43539
      1068 60991.83404    58.50350    59.02291     0.43074
      1069 61040.62750    58.54578    58.66043     0.43487
      1070 61089.46001    58.62230    57.31233     0.43559
      1071 61138.33157    58.72078    58.11433     0.44299
      1072 61187.24224    58.83991    56.04530     0.45159
      1073 61236.19203    59.02860    59.12414     0.42542
      1074 61285.18099    59.44431    57.36843     0.43679
      1075 61334.20913    60.52230    61.81248     0.41319
      1076 61383.27650    63.09437    63.90708     0.40644
      1077 61432.38312    68.23003    69.80263     0.37729
      1078 61481.52903    76.63098    74.96591     0.35215
      1079 61530.71425    87.49665    85.41828     0.32973
      1080 61579.93882    96.65167    91.78021     0.30971
      1081 61629.20277    97.74806    91.23860     0.31101
      1082 61678.50613    89.94846    80.81659     0.33816
      1083 61727.84894    79.17478    75.24984     0.35026
      1084 61777.23122    70.52588    69.90905     0.37197
      1085 61826.65300    65.26088    61.99994     0.40018
      1086 61876.11432    62.48844    60.27438     0.41514
      1087 61925.61522    61.12232    62.29621     0.40495
      1088 61975.15571    60.47668    62.69218     0.39496
      1089 62024.73583    60.20171    61.14901     0.40363
      1090 62074.35562    60.13180    60.39416     0.41177
      1091 62124.01511    60.19635    58.28989     0.40974
      1092 62173.71432    60.36912    58.23505     0.41278
      1093 62223.45329    60.66275    57.92650     0.41202
      1094 62273.23205    61.19889    59.48476     0.39424
      1095 62323.05064    62.52873    60.60355     0.38230
      1096 62372.90908    66.39103    65.43818     0.37143
      1097 62422.80741    76.03451    77.26939     0.33490
      1098 62472.74565    93.48606    98.82578     0.27631
      1099 62522.72385   113.67807   117.40506     0.23792
      1100 62572.74203   123.96538   131.30963     0.21784
      1101 62622.80022   117.78301   124.29247     0.22708
      1102 62672.89846   102.22758   109.95937     0.25374
      1103 62723.03678    87.53018    91.97628     0.28821
      1104 62773.21521    78.65003    79.01580     0.31135
      1105 62823.43378    76.70063    80.41949     0.31467
      1106 62873.69253    85.59279    91.96434     0.28127
      1107 62923.99148   119.07916   119.40185     0.22759
      1108 62974.33068   198.03433   204.75172     0.14730
      1109 63024.71014   322.74565   333.07486     0.09503
      1110 63075.12991   437.58651   445.93670     0.07215
      1111 63125.59001   460.86855   470.37986     0.06881
      1112 63176.09048   384.65732   392.87492     0.08074
      1113 63226.63136   273.35224   279.08419     0.10970
      1114 63277.21266   183.34072   189.03364     0.15619
      1115 63327.83443   130.51902   137.92092     0.20118
      1116 63378.49670   105.84705   108.20963     0.24234
      1117 63429.19950    94.85062    97.20875     0.26312
      1118 63479.94286    86.91675    84.81525     0.29534
      1119 63530.72681    78.82783    78.54780     0.30960
      1120 63581.55139    71.73955    69.42499     0.33723
      1121 63632.41663    66.80615    66.87034     0.35300
      1122 63683.32257    63.88305    63.33041     0.35850
      1123 63734.26922    62.25409    63.68575     0.35009
      1124 63785.25664    61.32481    61.03802     0.36613
      1125 63836.28485    60.75966    62.62901     0.35479
      1126 63887.35387    60.39560    59.95446     0.36519
      1127 63938.46376    60.16315    55.84952     0.37715
      1128 63989.61453    60.06626    58.28419     0.37559
      1129 64040.80622    60.21548    59.68154     0.36664
      1130 64092.03886    61.00793    59.54521     0.36348
      1131 64143.31249    62.84952    62.95145     0.35325
      1132 64194.62714    65.55489    59.51406     0.36176
      1133 64245.98285    67.77041    63.08852     0.34872
      1134 64297.37963    67.90780    62.82985     0.34226
      1135 64348.81754    66.04206    63.35874     0.34334
      1136 64400.29659    63.54776    63.88949     0.34946
      1137 64451.81683    61.53142    59.34927     0.35851
      1138 64503.37828    60.27516    56.57364     0.36704
      1139 64554.98098    59.49758    54.46753     0.37310
      1140 64606.62497    58.98199    56.81887     0.36422
      1141 64658.31027    58.73896    60.19991     0.36060
      1142 64710.03692    58.63579    59.93758     0.35582
      1143 64761.80495    58.63356    57.85140     0.36145
      1144 64813.61439    58.73164    59.60740     0.34763
      1145 64865.46528    58.90421    56.00096     0.35881
      1146 64917.35765    59.04393    61.03161     0.34676
      1147 64969.29154    59.04453    60.66830     0.35344
      1148 65021.26697    58.91080    57.21388     0.35711
      1149 65073.28399    58.73637    58.22367     0.35700
      1150 65125.34261    58.59688    59.60235     0.34362
      1151 65177.44289    58.51095    57.12448     0.35791
      1152 65229.58484    58.46478    55.73628     0.36175
      1153 65281.76851    58.44105    54.76285     0.35498
      1154 65333.99393    58.42861    56.93638     0.35299
      1155 65386.26112    58.42181    55.90453     0.35712
      1156 65438.57013    58.41794    58.39283     0.34773
      1157 65490.92099    58.41566    56.26467     0.35834
      1158 65543.31372    58.41428    58.79184     0.34667
      1159 65595.74837    58.41340    55.04635     0.35306
      1160 65648.22497    58.41283    60.26552     0.33437
      1161 65700.74355    58.41249    56.18804     0.34855
      1162 65753.30415    58.41231    57.64315     0.33663
      1163 65805.90679    58.40806    55.43223     0.34482
      1164 65858.55152    58.40582    58.53519     0.33781
      1165 65911.23836    58.40526    56.53461     0.34862
      1166 65963.96735    58.40871    57.91196     0.34053
      1167 66016.73852    58.41578    57.40036     0.34493
      1168 66069.55191    58.41982    57.95556     0.34780
      1169 66122.40755    58.42265    57.48987     0.33936
      1170 66175.30548    58.42501    60.50266     0.33212
      1171 66228.24572    58.42725    55.99721     0.34036
      1172 66281.22832    58.42954    53.68833     0.34658
      1173 66334.25330    58.43194    56.85452     0.34398
      1174 66387.32071    58.43452    54.44328     0.33334
      1175 66440.43056    58.43729    57.17267     0.32593
      1176 66493.58291    58.44009    56.20721     0.33527
      1177 66546.77777    58.44337    57.71803     0.33070
      1178 66600.01520    58.44715    57.81734     0.32501
      1179 66653.29521    58.45147    56.80242     0.33317
      1180 66706.61784    58.45642    57.11546     0.33447
      1181 66759.98314    58.46212    57.46852     0.32714
      1182 66813.39112    58.46878    56.37636     0.33627
      1183 66866.84184    58.47666    59.09283     0.31973
      1184 66920.33531    58.48611    57.22111     0.32982
      1185 66973.87158    58.49765    55.73408     0.32658
      1186 67027.45068    58.51197    58.49220     0.31935
      1187 67081.07264    58.53014    54.50676     0.32846
      1188 67134.73750    58.55373    55.08844     0.32993
      1189 67188.44529    58.58601    61.10220     0.30125
      1190 67242.19604    58.63175    59.21884     0.31406
      1191 67295.98980    58.70896    57.10432     0.32387
      1192 67349.82659    58.89036    58.81860     0.31125
      1193 67403.70645    59.41518    59.52450     0.31180
      1194 67457.62942    60.81442    58.81509     0.30861
      1195 67511.59552    63.70648    64.15317     0.30029
      1196 67565.60480    67.93528    62.94804     0.29629
      1197 67619.65728    71.69355    67.79682     0.28446
      1198 67673.75301    72.50999    66.64375     0.28174
      1199 67727.89201    70.06352    65.83752     0.27842
      1200 67782.07432    66.26572    63.31796     0.29164
      1201 67836.29998    62.97704    61.21749     0.29009
      1202 67890.56902    60.97192    59.02926     0.30394
      1203 67944.88148    59.94586    58.26592     0.30490
      1204 67999.23738    59.43558    59.19618     0.30691
      1205 68053.63677    59.19140    57.57015     0.29594
      1206 68108.07968    59.07756    58.18965     0.30253
      1207 68162.56615    59.02973    59.64673     0.30195
      1208 68217.09620    59.01780    57.08185     0.29922
      1209 68271.66987    59.02686    58.49365     0.30475
      1210 68326.28721    59.04963    56.66862     0.30364
      1211 68380.94824    59.08302    59.15788     0.30033
      1212 68435.65300    59.12648    59.04886     0.30051
      1213 68490.40152    59.18073    63.06954     0.29047
      1214 68545.19384    59.24825    58.11877     0.30291
      1215 68600.03000    59.33654    56.11580     0.30220
      1216 68654.91002    59.46781    58.45621     0.29754
      1217 68709.83395    59.69232    57.53175     0.29312
      1218 68764.80182    60.07833    60.16844     0.29353
      1219 68819.81366    60.64376    54.94747     0.29713
      1220 68874.86951    61.26181    61.94282     0.28534
      1221 68929.96941    61.68865    63.49913     0.28160
      1222 68985.11338    61.81735    59.10682     0.28872
      1223 69040.30147    61.80658    63.37415     0.28331
      1224 69095.53371    61.89916    57.96845     0.29205
      1225 69150.81014    62.26163    61.59217     0.27945
      1226 69206.13079    63.00407    59.85888     0.27770
      1227 69261.49569    64.41178    60.47218     0.28258
      1228 69316.90489    67.70704    68.22429     0.26667
      1229 69372.35841    77.10705    75.01863     0.25046
      1230 69427.85630   102.63269    97.67992     0.20344
      1231 69483.39858   157.30030   159.77561     0.13520
      1232 69538.98530   242.44567   255.18127     0.09008
      1233 69594.61649   328.81052   353.78073     0.06680
      1234 69650.29218   364.36825   387.87002     0.06131
      1235 69706.01242   328.02902   345.17302     0.06792
      1236 69761.77723   250.84727   270.86020     0.08486
      1237 69817.58665   175.24665   192.11373     0.11461
      1238 69873.44072   122.57465   139.44233     0.14892
      1239 69929.33947    92.72926   105.97439     0.18496
      1240 69985.28294    77.63572    87.65038     0.21152
      1241 70041.27117    70.28674    79.19333     0.22915
      1242 70097.30419    66.67484    74.19234     0.23553
      1243 70153.38203    64.86994    67.42018     0.24838
      1244 70209.50474    63.97296    68.85869     0.25010
      1245 70265.67234    63.55096    66.18562     0.26065
      1246 70321.88488    63.39690    63.35508     0.26182
      1247 70378.14239    63.42045    68.16591     0.24976
      1248 70434.44490    63.59010    64.45502     0.25883
      1249 70490.79246    63.90336    64.77492     0.25387
      1250 70547.18509    64.37502    64.21180     0.25096
      1251 70603.62284    65.03587    65.49618     0.25484
      1252 70660.10574    65.93689    64.79508     0.25733
      1253 70716.63382    67.16156    66.68198     0.25098
      1254 70773.20713    68.84895    72.42363     0.23849
      1255 70829.82569    71.30060    69.79491     0.24156
      1256 70886.48955    75.50237    73.17915     0.23946
      1257 70943.19875    85.20067    85.55444     0.21547
      1258 70999.95330   112.26842   103.86577     0.17835
      1259 71056.75327   182.93481   166.89613     0.12361
      1260 71113.59867   330.19177   328.99523     0.06693
      1261 71170.48955   556.13257   602.89048     0.03831
      1262 71227.42594   785.00766   873.09064     0.02687
      1263 71284.40788   883.25823   969.51243     0.02428
      1264 71341.43541   792.48491   836.50887     0.02797
      1265 71398.50856   588.52063   609.19727     0.03777
      1266 71455.62736   382.88046   388.22047     0.05742
      1267 71512.79186   236.01797   241.78617     0.08809
      1268 71570.00210   151.24242   160.14559     0.12591
      1269 71627.25810   107.93783   117.72478     0.15944
      1270 71684.55991    86.74352    96.98070     0.18599
      1271 71741.90755    76.18000    84.44122     0.20199
      1272 71799.30108    70.64446    77.47657     0.22109
      1273 71856.74052    67.54683    74.46701     0.22828
      1274 71914.22591    65.66001    67.95627     0.23829
      1275 71971.75729    64.39245    70.18455     0.23880
      1276 72029.33470    63.46460    64.48760     0.24838
      1277 72086.95817    62.74628    63.94159     0.25330
      1278 72144.62773    62.17247    64.94915     0.24944
      1279 72202.34344    61.70529    60.79601     0.25738
      1280 72260.10531    61.31970    61.61540     0.25067
      1281 72317.91340    60.99772    58.72490     0.25948
      1282 72375.76773    60.72581    62.81939     0.25764
      1283 72433.66834    60.64070    62.99091     0.25723
      1284 72491.61527    60.58788    57.52500     0.25985
      1285 72549.60857    60.48978    60.42773     0.25359
      1286 72607.64825    60.38592    55.58572     0.26417
      1287 72665.73437    60.29085    59.50855     0.25109
      1288 72723.86696    60.20927    55.55628     0.26623
      1289 72782.04605    60.14220    60.32774     0.25770
      1290 72840.27169    60.08941    56.01791     0.25784
      1291 72898.54391    60.05032    57.48217     0.25426
      1292 72956.86274    60.02457    56.45934     0.25665
      1293 73015.22823    60.01208    58.66831     0.25378
      1294 73073.64042    59.70713    56.89304     0.24604
      1295 73132.09933    59.44571    57.57340     0.25071
      1296 73190.60501    59.39182    59.19230     0.25211
      1297 73249.15749    59.42920    55.48908     0.25376
      1298 73307.75682    59.51301    56.60886     0.24988
      1299 73366.40302    59.62748    57.34375     0.25470
      1300 73425.09615    59.85871    58.26452     0.24312
      1301 73483.83622    60.17800    62.35026     0.23597
      1302 73542.62329    60.51557    63.03614     0.23707
      1303 73601.45739    60.83847    58.44506     0.24500
      1304 73660.33856    61.19771    55.92893     0.25052
      1305 73719.26683    61.62829    60.20302     0.24142
      1306 73778.24224    62.16513    61.43300     0.24083
      1307 73837.26483    62.85428    62.47440     0.23174
      1308 73896.33465    63.77188    64.42731     0.22553
      1309 73955.45171    65.09875    61.48537     0.22858
      1310 74014.61607    67.45213    65.98820     0.22599
      1311 74073.82777    73.00968    73.89065     0.20449
      1312 74133.08683    87.91651    85.49133     0.18283
      1313 74192.39330   124.17379   123.43189     0.13783
      1314 74251.74721   194.72020   196.48143     0.09495
      1315 74311.14861   297.15651   293.78917     0.06628
      1316 74370.59753   396.70801   377.23114     0.05272
      1317 74430.09401   437.50467   407.15934     0.04887
      1318 74489.63808   396.45431   368.41113     0.05334
      1319 74549.22979   305.66501   288.35578     0.06697
      1320 74608.86918   212.65820   221.47560     0.08355
      1321 74668.55627   144.81376   153.73064     0.11366
      1322 74728.29112   105.07562   124.80694     0.13465
      1323 74788.07375    84.90250    99.91826     0.15773
      1324 74847.90421    75.49333    83.14378     0.18060
      1325 74907.78253    71.41807    81.71838     0.18349
      1326 74967.70876    70.05614    78.77570     0.18808
      1327 75027.68293    70.49796    79.07730     0.18745
      1328 75087.70507    73.46146    78.97379     0.18467
      1329 75147.77524    82.91266    88.54982     0.16766
      1330 75207.89346   108.96514   119.37178     0.13416
      1331 75268.05977   167.37567   176.74205     0.09869
      1332 75328.27422   267.42731   278.34047     0.06572
      1333 75388.53684   389.68702   382.80932     0.04882
      1334 75448.84767   477.02491   463.61097     0.04081
      1335 75509.20675   475.39872   442.88472     0.04266
      1336 75569.61411   392.52162   380.84220     0.04870
      1337 75630.06980   281.34728   274.40254     0.06593
      1338 75690.57386   187.62240   191.16536     0.08878
      1339 75751.12632   127.18561   143.52659     0.11307
      1340 75811.72722    94.42196   108.99620     0.14012
      1341 75872.37660    78.24592    91.51421     0.15837
      1342 75933.07450    70.41607    82.60571     0.17140
      1343 75993.82096    66.48961    68.19665     0.18925
      1344 76054.61602    64.37721    70.68981     0.19419
      1345 76115.45971    63.12588    66.32178     0.19509
      1346 76176.35208    62.30036    63.59799     0.20166
      1347 76237.29316    61.70039    67.51278     0.19551
      1348 76298.28300    61.23628    60.68174     0.20196
      1349 76359.32162    60.81288    58.50660     0.21135
      1350 76420.40908    60.33600    60.34070     0.20603
      1351 76481.54541    60.01747    61.24429     0.20347
      1352 76542.73064    59.79108    58.84030     0.20889
      1353 76603.96483    59.61569    60.23232     0.20901
      1354 76665.24800    59.47246    58.18360     0.21116
      1355 76726.58020    59.35182    56.34388     0.21244
      1356 76787.96146    59.24828    58.18659     0.20294
      1357 76849.39183    59.15837    56.53472     0.21469
      1358 76910.87134    59.07961    56.58751     0.21581
      1359 76972.40004    59.01001    58.05664     0.20344
      1360 77033.97796    58.94816    58.18100     0.20401
      1361 77095.60514    58.89289    55.75112     0.22030
      1362 77157.28163    58.84326    58.19671     0.19999
      1363 77219.00745    58.79850    59.12480     0.20379
      1364 77280.78266    58.75794    58.77174     0.20624
      1365 77342.60729    58.72104    56.87714     0.20952
      1366 77404.48137    58.68734    60.29310     0.20181
      1367 77466.40496    58.45019    55.80151     0.20656
      1368 77528.37808    58.31283    54.27095     0.20316
      1369 77590.40078    58.25781    56.89723     0.20532
      1370 77652.47310    58.23477    53.84750     0.20794
      1371 77714.59508    58.22416    60.34616     0.19391
      1372 77776.76676    58.21841    62.28417     0.19862
      1373 77838.98817    58.21462    61.95588     0.19522
      1374 77901.25936    58.45611    57.60807     0.20122
      1375 77963.58037    58.67416    62.61851     0.19296
      1376 78025.95123    58.77890    58.51848     0.19354
      1377 78088.37199    58.84383    56.43002     0.19786
      1378 78150.84269    58.90054    58.77422     0.19525
      1379 78213.36337    58.96850    62.29667     0.18379
      1380 78275.93406    59.06579    58.84512     0.18648
      1381 78338.55480    59.20494    56.42071     0.19280
      1382 78401.22565    59.37714    60.93524     0.18652
      1383 78463.94663    59.54103    59.71063     0.18960
      1384 78526.71779    59.64179    56.45792     0.19609
      1385 78589.53916    59.66570    56.68485     0.19140
      1386 78652.41079    59.65232    54.78917     0.19683
      1387 78715.33272    59.65210    62.04836     0.18876
      1388 78778.30499    59.69426    58.72384     0.18901
      1389 78841.32763    59.78413    59.93147     0.18559
      1390 78904.40069    59.91602    57.72204     0.18911
      1391 78967.52421    60.08482    56.46803     0.18901
      1392 79030.69823    60.29009    59.52797     0.18308
      1393 79093.92279    60.53590    56.55932     0.18680
      1394 79157.19793    60.83035    61.40190     0.18294
      1395 79220.52369    61.18547    62.67755     0.17851
      1396 79283.90011    61.61810    59.30395     0.18142
      1397 79347.32723    62.15170    57.39621     0.18660
      1398 79410.80509    62.81953    58.73597     0.17655
      1399 79474.33373    63.67014    62.44995     0.17154
      1400 79537.91320    64.86404    65.52773     0.16787
      1401 79601.54353    66.52785    63.00971     0.16425
      1402 79665.22476    69.04212    70.55794     0.15598
      1403 79728.95694    73.87249    71.18175     0.16301
      1404 79792.74011    85.61897    82.00250     0.14028
      1405 79856.57430   114.93050   115.25529     0.11013
      1406 79920.45956   178.86701   179.26489     0.07631
      1407 79984.39593   291.35915   302.43310     0.04776
      1408 80048.38345   442.49470   454.78336     0.03306
      1409 80112.42215   581.93444   570.52224     0.02644
      1410 80176.51209   637.32235   605.19988     0.02491
      1411 80240.65330   579.14393   539.97839     0.02760
      1412 80304.84582   448.01119   427.09336     0.03414
      1413 80369.08970   307.84052   313.83152     0.04587
      1414 80433.38497   200.05949   214.44383     0.06248
      1415 80497.73168   133.52619   148.20323     0.08531
      1416 80562.12986    98.25041   118.30773     0.10497
      1417 80626.57957    81.12337    97.02704     0.11641
      1418 80691.08083    72.99697    87.98938     0.12643
      1419 80755.63370    69.00472    73.20448     0.13634
      1420 80820.23820    66.89162    72.81270     0.14309
      1421 80884.89439    65.67320    72.90068     0.14323
      1422 80949.60231    64.94130    70.68351     0.14415
      1423 81014.36199    64.52008    68.89898     0.14480
      1424 81079.17348    64.30742    65.56017     0.14978
      1425 81144.03682    64.28765    71.05543     0.14195
      1426 81208.95205    64.46645    69.16911     0.14488
      1427 81273.91921    64.87377    69.96914     0.14212
      1428 81338.93835    65.58890    67.58184     0.14567
      1429 81404.00950    66.85627    74.11483     0.13698
      1430 81469.13271    69.50033    69.12733     0.13943
      1431 81534.30801    76.02919    72.29054     0.13324
      1432 81599.53546    92.47301   101.27599     0.10488
      1433 81664.81509   129.17823   130.80236     0.08664
      1434 81730.14694   196.37034   212.82369     0.05762
      1435 81795.53106   292.34829   312.88197     0.04128
      1436 81860.96748   391.24709   413.75348     0.03169
      1437 81926.45625   446.92747   467.46262     0.02834
      1438 81991.99742   428.36716   423.54170     0.03071
      1439 82057.59102   350.64763   342.10971     0.03745
      1440 82123.23709   254.84757   249.04752     0.04999
      1441 82188.93568   174.25531   178.33353     0.06519
      1442 82254.68683   120.98984   130.95870     0.08425
      1443 82320.49058    91.32945    93.46226     0.10734
      1444 82386.34697    76.44809    79.52679     0.11983
      1445 82452.25605    69.11630    69.64405     0.13230
      1446 82518.21785    65.57669    72.86009     0.12320
      1447 82584.23243    63.73968    64.12343     0.13679
      1448 82650.29981    62.68232    58.26545     0.14428
      1449 82716.42005    62.01523    59.26036     0.14245
      1450 82782.59319    61.57883    56.30337     0.14387
      1451 82848.81926    61.31657    57.40407     0.14070
      1452 82915.09832    61.25261    59.57708     0.14055
      1453 82981.43040    61.56047    65.13028     0.13482
      1454 83047.81554    62.74336    67.84369     0.13290
      1455 83114.25379    65.82900    65.06696     0.13390
      1456 83180.74520    72.23240    70.10274     0.12481
      1457 83247.28979    82.82509    82.32349     0.11190
      1458 83313.88763    96.35830   102.31238     0.09436
      1459 83380.53874   108.45590   112.72351     0.08882
      1460 83447.24317   113.24987   111.78697     0.08771
      1461 83514.00096   108.27692   107.77865     0.08948
      1462 83580.81216    96.66589    91.68761     0.09864
      1463 83647.67681    83.72515    77.43804     0.10837
      1464 83714.59495    73.25952    76.34141     0.11686
      1465 83781.56663    66.44244    63.54513     0.12385
      1466 83848.59188    62.64862    62.83909     0.12632
      1467 83915.67076    60.74007    61.22327     0.12409
      1468 83982.80329    59.81328    55.00560     0.13455
      1469 84049.98953    59.34695    60.50970     0.12621
      1470 84117.22953    59.09026    54.23078     0.13491
      1471 84184.52331    58.93403    51.45510     0.14344
      1472 84251.87093    58.73195    55.70461     0.13056
      1473 84319.27243    58.50230    56.98823     0.13124
      1474 84386.72784    58.43972    61.15523     0.12392
      1475 84454.23723    58.50182    52.49840     0.13302
      1476 84521.80062    58.77529    55.19472     0.13174
      1477 84589.41806    59.49499    52.42378     0.13179
      1478 84657.08959    61.00536    56.81025     0.13111
      1479 84724.81526    63.54597    65.09130     0.12129
      1480 84792.59511    66.88036    59.61452     0.12456
      1481 84860.42919    70.01397    63.33277     0.11757
      1482 84928.31753    71.54175    64.04751     0.11337
      1483 84996.26019    70.85906    58.98897     0.12059
      1484 85064.25720    68.83469    66.78930     0.11584
      1485 85132.30860    66.93870    63.97930     0.11985
      1486 85200.41445    66.08014    68.45175     0.11105
      1487 85268.57478    66.09780    62.62112     0.12161
      1488 85336.78964    66.05541    69.23879     0.10998
      1489 85405.05907    65.17419    74.77790     0.10457
      1490 85473.38312    63.50924    60.91176     0.11764
      1491 85541.76183    61.63948    56.77567     0.12098
      1492 85610.19523    60.08322    58.73439     0.11975
      1493 85678.68339    59.03800    58.28069     0.12735
      1494 85747.22634    58.43854    61.44935     0.11422
      1495 85815.82412    58.12713    54.65827     0.11748
      1496 85884.47678    57.95022    56.02562     0.12176
      1497 85953.18436    57.84637    53.43636     0.11727
      1498 86021.94691    57.79241    56.41386     0.12078
      1499 86090.76446    57.76049    58.84474     0.11791
      1500 86159.63708    57.73989    51.14358     0.11979
      1501 86228.56479    57.73230    59.26073     0.11414
      1502 86297.54764    57.73326    54.10803     0.11492
      1503 86366.58568    57.73938    54.49099     0.12007
      1504 86435.67894    57.74660    58.52827     0.11336
      1505 86504.82749    57.75905    56.86577     0.11288
      1506 86574.03135    57.78024    53.86385     0.11899
      1507 86643.29057    57.81711    58.23864     0.11653
      1508 86712.60521    57.89016    58.48501     0.11024
      1509 86781.97529    58.06007    58.65940     0.11064
      1510 86851.40087    58.47745    58.66590     0.11030
      1511 86920.88199    59.42818    54.39401     0.11022
      1512 86990.41870    61.28111    61.49126     0.11005
      1513 87060.01103    64.23419    65.39294     0.10436
      1514 87129.65904    67.91789    69.34508     0.10225
      1515 87199.36277    71.16561    69.45447     0.09849
      1516 87269.12226    72.45221    69.77536     0.09604
      1517 87338.93756    71.13787    67.12335     0.10063
      1518 87408.80871    68.02567    66.09917     0.10219
      1519 87478.73575    64.51643    62.04510     0.09969
      1520 87548.71874    61.64085    61.66618     0.10514
      1521 87618.75772    59.74254    58.73974     0.10174
      1522 87688.85272    58.67745    57.68318     0.10276
      1523 87759.00381    58.14475    58.23867     0.10799
      1524 87829.21101    57.89216    59.82716     0.10390
      1525 87899.47438    57.77324    61.40639     0.10460
      1526 87969.79396    57.71840    65.35074     0.10501
      1527 88040.16979    57.69534    64.78678     0.10283
      1528 88110.60193    57.69185    56.44746     0.10877
      1529 88181.09041    57.70456    62.80186     0.10308
      1530 88251.63528    57.73498    61.09379     0.10566
      1531 88322.23659    57.79131    56.94397     0.11064
      1532 88392.89438    57.90113    58.62813     0.10845
      1533 88463.60869    58.15036    60.83044     0.10519
      1534 88534.37958    58.76541    62.03347     0.10577
      1535 88605.20709    60.20930    58.61047     0.10906
      1536 88676.09125    63.14690    66.71188     0.09811
      1537 88747.03212    68.06632    64.47918     0.10183
      1538 88818.02975    74.57022    73.95582     0.09135
      1539 88889.08417    80.82120    69.99355     0.09172
      1540 88960.19544    84.01077    80.93945     0.08702
      1541 89031.36360    82.47619    71.78548     0.09087
      1542 89102.58869    77.26615    68.05820     0.09596
      1543 89173.87076    70.89193    71.95288     0.09615
      1544 89245.20986    65.42283    66.58348     0.09850
      1545 89316.60602    61.69467    63.95109     0.10317
      1546 89388.05931    59.55082    62.39011     0.10747
      1547 89459.56976    58.45517    58.15619     0.10528
      1548 89531.13741    57.92560    57.15536     0.10748
      1549 89602.76232    57.66406    60.29059     0.10134
      1550 89674.44453    57.52143    59.88113     0.10773
      1551 89746.18409    57.43179    58.11998     0.10316
      1552 89817.98103    57.36761    54.60035     0.10930
      1553 89889.83542    57.31041    62.34154     0.10281
      1554 89961.74729    57.26447    62.34333     0.10450
      1555 90033.71669    57.22816    53.92266     0.11208
      1556 90105.74366    57.19751    62.87670     0.10256
      1557 90177.82825    57.17068    59.81533     0.10239
      1558 90249.97052    57.14666    57.26457     0.11108
      1559 90322.17049    57.12482    52.60627     0.10956
      1560 90394.42823    57.10470    54.18370     0.11101
      1561 90466.74377    57.08597    54.40735     0.11288
      1562 90539.11717    57.06837    57.47038     0.10853
      1563 90611.54846    57.05169    55.49896     0.10716
      1564 90684.03770    57.03579    57.11081     0.10851
      1565 90756.58493    57.02053    60.25863     0.10087
      1566 90829.19020    57.00582    56.56261     0.10593
      1567 90901.85355    56.99155    55.73639     0.10268
      1568 90974.57503    56.97767    54.23846     0.10640
      1569 91047.35469    56.96412    54.39414     0.10561
      1570 91120.19258    56.95084    56.32345     0.10506
      1571 91193.08873    56.93779    55.30603     0.10192
      1572 91266.04320    56.92495    52.69750     0.10625
      1573 91339.05604    56.91234    55.14059     0.10100
      1574 91412.12728    56.90008    52.66535     0.10954
      1575 91485.25698    56.88814    58.62163     0.09951
      1576 91558.44519    56.87601    52.56454     0.10421
      1577 91631.69194    56.85203    61.31093     0.09678
      1578 91704.99730    56.83144    56.64301     0.10133
      1579 91778.36130    56.81756    51.22314     0.10142
      1580 91851.78398    56.80578    51.24327     0.09749
      1581 91925.26541    56.79466    51.59308     0.10284
      1582 91998.80562    56.78374    52.47223     0.10046
      1583 92072.40467    56.77286    56.06085     0.09773
      1584 92146.06259    56.76198    59.02436     0.09810
      1585 92219.77944    56.75106    61.64731     0.09257
      1586 92293.55527    56.74011    59.20231     0.09538
      1587 92367.39011    56.72913    59.06145     0.09544
      1588 92441.28402    56.71812    53.90039     0.09475
      1589 92515.23705    56.70708    51.33206     0.09896
      1590 92589.24924    56.69602    50.74030     0.09854
      1591 92663.32064    56.68493    54.88785     0.09871
      1592 92737.45129    56.67382    54.73258     0.09542
      1593 92811.64126    56.66271    59.25432     0.09486
      1594 92885.89057    56.65158    57.27857     0.09414
      1595 92960.19928    56.64045    60.11681     0.09823
      1596 93034.56744    56.62933    52.86692     0.09474
      1597 93108.99509    56.61823    64.16052     0.08812
      1598 93183.48229    56.60716    58.13069     0.09754
      1599 93258.02908    56.59614    55.35780     0.08956
      1600 93332.63550    56.58520    53.34638     0.09305
      1601 93407.30161    56.57437    52.52125     0.09686
      1602 93482.02745    56.56369    53.97052     0.09587
      1603 93556.81307    56.55323    56.22449     0.09408
      1604 93631.65852    56.54309    58.53502     0.09370
      1605 93706.56385    56.76795    58.40175     0.08948
      1606 93781.52910    57.14359    47.66826     0.09863
      1607 93856.55432    57.38079    57.59883     0.09005
      1608 93931.63957    57.49182    55.07537     0.08967
      1609 94006.78488    57.57968    54.30938     0.09166
      1610 94081.99031    57.69034    55.55082     0.08867
      1611 94157.25590    57.85312    52.41347     0.09398
      1612 94232.58170    58.08201    57.59030     0.09258
      1613 94307.96777    58.36155    59.64561     0.08706
      1614 94383.41414    58.63615    55.42073     0.09145
      1615 94458.92087    58.82326    55.52207     0.09184
      1616 94534.48801    58.86893    60.06733     0.08420
      1617 94610.11560    58.79616    54.15424     0.09009
      1618 94685.80369    58.67888    60.61716     0.08523
      1619 94761.55234    58.58801    58.68976     0.08792
      1620 94837.36158    58.56228    55.44989     0.08713
      1621 94913.23147    58.60784    63.45599     0.08231
      1622 94989.16205    58.71323    56.67860     0.08344
      1623 95065.15338    58.86441    57.82839     0.08558
      1624 95141.20551    59.05243    61.97118     0.08538
      1625 95217.31847    59.27446    56.70158     0.08977
      1626 95293.49232    59.53231    59.84930     0.08637
      1627 95369.72712    59.83093    57.65924     0.08166
      1628 95446.02290    60.17773    61.15793     0.08512
      1629 95522.37972    60.58254    64.27797     0.08497
      1630 95598.79762    61.05811    63.71098     0.08011
      1631 95675.27666    61.62103    61.79282     0.08285
      1632 95751.81688    62.29305    61.67510     0.08459
      1633 95828.41834    63.10317    67.35828     0.08040
      1634 95905.08107    64.09076    60.66020     0.08270
      1635 95981.80513    65.31149    64.90277     0.07945
      1636 96058.59058    66.85224    71.14243     0.07657
      1637 96135.43745    68.87999    70.34897     0.07763
      1638 96212.34580    72.59851    71.81117     0.07458
      1639 96289.31568    78.79280    74.32092     0.07041
      1640 96366.34713    89.83068    82.23793     0.06863
      1641 96443.44021   112.43395    99.21891     0.05995
      1642 96520.59496   159.81943   144.00656     0.04397
      1643 96597.81144   249.50547   226.77642     0.02987
      1644 96675.08969   395.25351   395.01615     0.01850
      1645 96752.42976   591.79803   625.10269     0.01210
      1646 96829.83170   801.10613   831.99565     0.00916
      1647 96907.29557   953.49270   947.33315     0.00805
      1648 96984.82140   981.63903   947.55031     0.00806
      1649 97062.40926   875.30875   847.38804     0.00890
      1650 97140.05919   686.88971   649.43823     0.01137
      1651 97217.77123   485.68464   488.12326     0.01491
      1652 97295.54545   320.38948   339.33815     0.02064
      1653 97373.38189   208.11334   235.86803     0.02853
      1654 97451.28059   142.59784   180.42370     0.03527
      1655 97529.24162   108.63129   142.84256     0.04282
      1656 97607.26501    92.33556   115.41016     0.04873
      1657 97685.35082    84.71735   105.47700     0.05428
      1658 97763.49910    81.06725    97.34319     0.05616
      1659 97841.70990    79.25468    89.16240     0.05792
      1660 97919.98327    78.40090    87.28607     0.06035
      1661 97998.31926    78.15879    74.54303     0.06568
      1662 98076.71791    78.39123    84.15262     0.05668
      1663 98155.17929    79.04927    80.59013     0.06125
      1664 98233.70343    80.12739    80.41278     0.06080
      1665 98312.29039    81.65000    79.08831     0.06464
      1666 98390.94023    83.66940    87.30333     0.05997
      1667 98469.65298    86.26967    90.62886     0.05881
      1668 98548.42870    89.57596    82.34754     0.06096
      1669 98627.26744    93.77473    82.86438     0.05932
      1670 98706.16926    99.16937    86.50631     0.05733
      1671 98785.13419   106.36374    92.06524     0.05687
      1672 98864.16230   116.86175   108.34220     0.05191
      1673 98943.25363   134.76465   124.19230     0.04489
      1674 99022.40823   170.61322   160.21935     0.03690
      1675 99101.62616   247.71326   221.82046     0.02802
      1676 99180.90746   407.78696   372.43931     0.01800
      1677 99260.25219   706.80540   672.83324     0.01025
      1678 99339.66039  1189.83883  1190.14229     0.00597
      1679 99419.13212  1845.49344  1936.57341     0.00370
      1680 99498.66742  2562.93583  2725.69710     0.00265
      1681 99578.26636  3129.99295  3238.94422     0.00223
      1682 99657.92897  3323.25404  3323.99777     0.00217
      1683 99737.65531  3077.44862  3015.05220     0.00238
      1684 99817.44544  2537.46902  2450.77554     0.00291
      1685 99897.29939  1928.68887  1918.49006     0.00370
      1686 99977.21723  1418.85941  1475.35716     0.00476
      1687 100057.19901  1062.94552  1183.18761     0.00591
      1688 100137.24477   825.61577   943.63927     0.00734
      1689 100217.35456   647.98690   744.21672     0.00916
      1690 100297.52844   496.51786   546.61971     0.01230
      1691 100377.76647   365.82541   409.38088     0.01600
      1692 100458.06868   261.88162   281.92414     0.02215
      1693 100538.43514   188.13968   217.21678     0.02743
      1694 100618.86588   141.32912   164.37786     0.03432
      1695 100699.36098   114.02510   131.88828     0.04176
      1696 100779.92047    98.66352   115.60154     0.04751
      1697 100860.54440    89.75940    96.71815     0.05254
      1698 100941.23284    84.11763    88.17597     0.05573
      1699 101021.98582    80.13572    82.99979     0.05916
      1700 101102.80341    77.07488    83.74029     0.05575
      1701 101183.68565    74.59616    84.10751     0.05916
      1702 101264.63260    72.53103    72.40796     0.06279
      1703 101345.64431    70.78145    70.29922     0.06196
      1704 101426.72082    69.28170    69.48735     0.06363
      1705 101507.86220    67.98475    65.62060     0.06799
      1706 101589.06849    66.85472    74.57792     0.06363
      1707 101670.33975    65.86351    69.94914     0.06160
      1708 101751.67602    64.98875    64.70389     0.06546
      1709 101833.07736    64.21246    66.47617     0.06587
      1710 101914.54382    63.52004    54.99264     0.06987
      1711 101996.07546    62.89948    62.55718     0.06658
      1712 102077.67232    62.34090    57.50616     0.06712
      1713 102159.33445    61.83604    61.36297     0.06571
      1714 102241.06192    61.37799    61.85527     0.06664
      1715 102322.85477    60.96101    57.21516     0.06881
      1716 102404.71305    60.58004    56.94692     0.06839
      1717 102486.63683    60.23088    51.09457     0.06699
      1718 102568.62613    59.90990    54.26985     0.06995
      1719 102650.68104    59.61398    48.73397     0.07724
      1720 102732.80158    59.34044    56.46990     0.06823
      1721 102814.98782    59.08692    52.42800     0.07108
      1722 102897.23981    58.85100    52.69555     0.07347
      1723 102979.55760    57.76610    56.57825     0.07283
      1724 103061.94125    55.98364    50.51395     0.07297
      1725 103144.39080    55.48253    53.93686     0.06816
      1726 103226.90632    55.30778    50.85807     0.07073
      1727 103309.48784    55.22743    52.63916     0.06935
      1728 103392.13543    55.17521    52.57869     0.07220
      1729 103474.84914    55.04383    58.60949     0.06806
      1730 103557.62902    54.77205    69.34855     0.05855
      1731 103640.47512    54.68336    47.36144     0.07176
      1732 103723.38750    54.64612    54.17772     0.06961
      1733 103806.36621    54.62284    46.85590     0.07102
      1734 103889.41130    54.60350    60.86452     0.06524
      1735 103972.52283    54.58523    61.85114     0.06562
      1736 104055.70085    54.56738    54.19898     0.06689
      1737 104138.94541    54.54949    51.77916     0.06701
      1738 104222.25657    54.53155    47.84004     0.06743
      1739 104305.63437    54.51358    49.31079     0.07188
      1740 104389.07888    54.49555    65.06346     0.06515
      1741 104472.59015    54.47749    51.84374     0.06779
      1742 104556.16822    54.45938    53.65754     0.06460
      1743 104639.81315    54.44122    60.00521     0.06161
      1744 104723.52500    54.42303    58.69017     0.06286
      1745 104807.30382    54.40479    42.98176     0.07181
      1746 104891.14967    54.38651    48.11778     0.06879
      1747 104975.06259    54.36818    54.31680     0.06661
      1748 105059.04264    54.34981    52.37845     0.07094
      1749 105143.08987    54.33140    54.83550     0.05927
      1750 105227.20434    54.31294    49.28999     0.07114
      1751 105311.38610    54.29445    52.73600     0.06504
      1752 105395.63521    54.27590    51.95646     0.07034
      1753 105479.95172    54.25732    54.28807     0.06774
      1754 105564.33568    54.23870    55.35657     0.06579
      1755 105648.78715    54.22003    51.02886     0.06057
      1756 105733.30618    54.20132    54.51885     0.06717
      1757 105817.89283    54.18256    51.57903     0.06169
      1758 105902.54714    54.16377    48.06051     0.06714
      1759 105987.26918    54.14493    49.18917     0.06680
      1760 106072.05899    54.12605    53.79344     0.06223
      1761 106156.91664    54.10713    50.87068     0.06547
      1762 106241.84217    54.08816    57.03247     0.06232
      1763 106326.83565    54.06916    52.79880     0.06572
      1764 106411.89712    54.05011    61.07158     0.05661
      1765 106497.02663    54.03102    52.85586     0.06250
      1766 106582.22426    54.01189    53.63289     0.05850
      1767 106667.49003    53.99272    49.52494     0.06087
      1768 106752.82403    53.97351    48.04164     0.06311
      1769 106838.22629    53.95425    56.91989     0.06093
      1770 106923.69687    53.93496    51.68679     0.06007
      1771 107009.23582    53.91562    57.55139     0.05935
      1772 107094.84321    53.89624    49.83704     0.06001
      1773 107180.51909    53.87683    51.04806     0.06169
      1774 107266.26350    53.85737    51.06620     0.06391
      1775 107352.07651    53.83787    55.50008     0.05822
      1776 107437.95817    53.81833    54.05839     0.05955
      1777 107523.90854    53.79875    48.60776     0.05740
      1778 107609.92767    53.77913    57.62271     0.05769
      1779 107696.01561    53.75947    50.27178     0.05544
      1780 107782.17242    53.73977    52.42455     0.05867
      1781 107868.39816    53.72003    54.10879     0.05927
      1782 107954.69288    53.70025    53.15606     0.06060
      1783 108041.05663    53.68043    51.21313     0.05400
      1784 108127.48948    53.66057    60.64214     0.05398
      1785 108213.99147    53.64068    48.83597     0.05707
      1786 108300.56266    53.62074    53.01363     0.05509
      1787 108387.20311    53.60076    53.51734     0.05525
      1788 108473.91288    53.58075    52.11516     0.05483
      1789 108560.69201    53.56069    51.07347     0.05646
      1790 108647.54056    53.54060    60.18173     0.05382
      1791 108734.45859    53.52047    46.92984     0.05824
      1792 108821.44616    53.50030    52.03869     0.05894
      1793 108908.50332    53.48010    55.25942     0.05170
      1794 108995.63012    53.45985    57.11699     0.05734
      1795 109082.82662    53.43957    53.72877     0.05364
      1796 109170.09288    53.41925    49.64916     0.04973
      1797 109257.42896    53.39889    50.20235     0.05520
      1798 109344.83490    53.37849    56.69926     0.05305
      1799 109432.31077    53.35806    52.22156     0.05558
      1800 109519.85662    53.33759    52.74745     0.05054
      1801 109607.47250    53.31708    47.67198     0.05526
      1802 109695.15848    53.29654    49.01075     0.05353
      1803 109782.91461    53.27596    55.93169     0.05385
      1804 109870.74094    53.25534    51.93698     0.05418
      1805 109958.63753    53.23468    53.15067     0.05201
      1806 110046.60444    53.21399    55.35835     0.05623
      1807 110134.64173    53.19327    48.59480     0.04909
      1808 110222.74944    53.17251    45.03926     0.05474
      1809 110310.92764    53.15171    49.09457     0.05241
      1810 110399.17638    53.13087    53.38465     0.05464
      1811 110487.49572    53.11001    53.27819     0.05305
      1812 110575.88572    53.08910    54.55587     0.05325
      1813 110664.34643    53.06816    47.59706     0.05415
      1814 110752.87791    53.04719    47.53824     0.05431
      1815 110841.48021    53.02618    53.94766     0.05049
      1816 110930.15339    53.00514    50.36834     0.05153
      1817 111018.89751    52.98406    44.45424     0.05778
      1818 111107.71263    52.96295    55.53914     0.04940
      1819 111196.59880    52.94180    49.92656     0.05347
      1820 111285.55608    52.92062    53.00043     0.05143
      1821 111374.58453    52.89941    48.09091     0.05123
      1822 111463.68419    52.87817    62.37673     0.04593
      1823 111552.85514    52.85689    48.91151     0.05032
      1824 111642.09743    52.83557    52.06992     0.04617
      1825 111731.41110    52.81423    50.69328     0.05025
      1826 111820.79623    52.79285    50.70645     0.05009
      1827 111910.25287    52.77144    47.33667     0.05178
      1828 111999.78107    52.75000    52.89982     0.04827
      1829 112089.38090    52.72853    61.45479     0.04637
      1830 112179.05240    52.70702    52.08156     0.04839
      1831 112268.79564    52.68548    57.09584     0.04535
      1832 112358.61068    52.66391    56.22077     0.04581
      1833 112448.49757    52.64231    55.55551     0.04603
      1834 112538.45637    52.62068    54.42815     0.04649
      1835 112628.48713    52.59902    61.89982     0.04431
      1836 112718.58992    52.57733    53.38517     0.04952
      1837 112808.76479    52.55561    59.79687     0.04491
      1838 112899.01180    52.53386    57.59828     0.04688
      1839 112989.33101    52.51207    54.47951     0.04498
      1840 113079.72248    52.49026    52.36339     0.04347
      1841 113170.18626    52.46842    51.88809     0.04429
      1842 113260.72241    52.44655    51.82226     0.04514
      1843 113351.33098    52.42465    55.96694     0.04207
      1844 113442.01205    52.40273    50.15322     0.04982
      1845 113532.76566    52.38077    48.62424     0.04794
      1846 113623.59187    52.35879    53.10956     0.04320
      1847 113714.49074    52.33677    63.16369     0.04421
      1848 113805.46234    52.31473    49.29604     0.05026
      1849 113896.50671    52.29267    57.43069     0.04267
      1850 113987.62391    52.27057    46.57510     0.04771
      1851 114078.81401    52.24845    53.67912     0.04451
      1852 114170.07706    52.22630    50.05921     0.04969
      1853 114261.41312    52.20413    54.59918     0.04452
      1854 114352.82225    52.18193    49.14051     0.04898
      1855 114444.30451    52.15970    55.45901     0.04348
      1856 114535.85996    52.13745    50.55400     0.04885
      1857 114627.48864    52.11517    48.63453     0.04503
      1858 114719.19064    52.09287    47.43797     0.04732
      1859 114810.96599    52.07054    48.32216     0.04576
      1860 114902.81476    52.04819    48.55064     0.04679
      1861 114994.73701    52.02582    50.95454     0.04544
      1862 115086.73280    52.00342    50.94784     0.04468
      1863 115178.80219    51.98099    59.89573     0.04351
      1864 115270.94523    51.95855    49.66585     0.04517
      1865 115363.16199    51.93607    48.98787     0.04701
      1866 115455.45252    51.91358    48.03562     0.04704
      1867 115547.81688    51.89107    53.07102     0.04419
      1868 115640.25513    51.86853    46.31473     0.04482
      1869 115732.76734    51.84597    53.27016     0.04110
      1870 115825.35355    51.82339    59.09485     0.04431
      1871 115918.01383    51.80078    46.89676     0.04519
      1872 116010.74824    51.77816    54.19384     0.04296
      1873 116103.55684    51.75551    46.45065     0.04554
      1874 116196.43969    51.73285    47.93151     0.04560
      1875 116289.39684    51.71016    55.09694     0.04319
      1876 116382.42836    51.68745    51.21096     0.04283
      1877 116475.53430    51.66473    52.71950     0.04304
      1878 116568.71473    51.64198    53.62565     0.04258
      1879 116661.96970    51.61922    47.22133     0.04407
      1880 116755.29927    51.59644    53.02120     0.04091
      1881 116848.70351    51.57364    59.16549     0.04164
      1882 116942.18248    51.55082    60.15991     0.04097
      1883 117035.73622    51.52798    46.17745     0.04506
      1884 117129.36481    51.50513    51.39167     0.04157
      1885 117223.06830    51.48226    55.83195     0.03950
      1886 117316.84676    51.45937    51.36798     0.03894
      1887 117410.70023    51.43647    50.95961     0.03801
      1888 117504.62880    51.41355    48.75718     0.04487
      1889 117598.63250    51.39061    45.80066     0.04012
      1890 117692.71140    51.36766    59.02079     0.04237
      1891 117786.86557    51.34470    52.75709     0.04424
      1892 117881.09507    51.32172    47.25255     0.03808
      1893 117975.39994    51.29872    56.31852     0.03936
      1894 118069.78026    51.27572    57.50992     0.03717
      1895 118164.23609    51.25269    55.90831     0.03769
      1896 118258.76747    51.22966    55.13286     0.03953
      1897 118353.37449    51.20661    54.49657     0.04015
      1898 118448.05719    51.18355    54.87177     0.03831
      1899 118542.81563    51.16048    55.77606     0.04075
      1900 118637.64989    51.13740    65.07558     0.03773
      1901 118732.56001    51.11430    60.12942     0.03856
      1902 118827.54605    51.09120    53.08803     0.03972
      1903 118922.60809    51.06808    51.55223     0.03882
      1904 119017.74618    51.04495    57.22309     0.03719
      1905 119112.96037    51.02182    49.46197     0.03932
      1906 119208.25074    50.99867    46.02677     0.03683
      1907 119303.61734    50.97552    54.62030     0.03900
      1908 119399.06024    50.95236    58.57975     0.03711
      1909 119494.57949    50.92918    56.02246     0.03599
      1910 119590.17515    50.90601    55.19800     0.03753
      1911 119685.84729    50.88282    49.98934     0.03886
      1912 119781.59597    50.85963    51.02570     0.03559
      1913 119877.42124    50.83795    58.10028     0.03451
      1914 119973.32318    50.81722    50.24799     0.04006
      1915 120069.30184    50.79604    46.70090     0.03755
      1916 120165.35728    50.77349    61.77769     0.03411
      1917 120261.48957    50.75063    58.69680     0.03671
      1918 120357.69876    50.72771    49.70485     0.03774
      1919 120453.98492    50.70478    54.10910     0.03775
      1920 120550.34811    50.68187    49.95216     0.03805
      1921 120646.78838    50.65897    54.58030     0.03644
      1922 120743.30581    50.63610    47.53261     0.03592
      1923 120839.90046    50.61324    58.73417     0.03409
      1924 120936.57238    50.59041    59.24537     0.03580
      1925 121033.32164    50.56761    48.10348     0.03716
      1926 121130.14829    50.54484    55.80662     0.03181
      1927 121227.05241    50.52211    60.29813     0.03433
      1928 121324.03406    50.49941    49.19364     0.03429
      1929 121421.09328    50.47676    40.56405     0.03589
      1930 121518.23016    50.45415    57.03555     0.03402
      1931 121615.44474    50.43160    47.55544     0.03536
      1932 121712.73710    50.40911    53.55351     0.03330
      1933 121810.10729    50.38669    56.86766     0.03482
      1934 121907.55537    50.36434    51.54233     0.03838
      1935 122005.08142    50.34208    52.91590     0.03272
      1936 122102.68548    50.31991    50.78634     0.03260
      1937 122200.36763    50.29786    53.34712     0.03333
      1938 122298.12792    50.27592    54.81999     0.03377
      1939 122395.96643    50.25413    54.57743     0.03428
      1940 122493.88320    50.23250    48.41901     0.03646
      1941 122591.87831    50.21105    55.26175     0.03513
      1942 122689.95181    50.18982    53.41093     0.03256
      1943 122788.10377    50.16883    58.77735     0.03208
      1944 122886.33425    50.14813    51.68106     0.03431
      1945 122984.64332    50.12777    50.94851     0.03423
      1946 123083.03104    50.10781    52.30232     0.03379
      1947 123181.49746    50.08833    42.15217     0.03707
      1948 123280.04266    50.06941    57.60597     0.03366
      1949 123378.66669    50.05117    53.54308     0.03050
      1950 123477.36963    50.03378    46.76603     0.03383
      1951 123576.15152    50.01743    43.50505     0.03521
      1952 123675.01244    50.00240    60.12117     0.03450
      1953 123773.95245    49.98918    41.94874     0.03598
      1954 123872.97162    49.97863    45.89967     0.03440
      1955 123972.06999    49.97271    51.87233     0.03400
      1956 124071.24765    49.97579    53.74588     0.03290
      1957 124170.50465    49.99736    54.97618     0.03465
      1958 124269.84105    50.05628    51.76859     0.03272
      1959 124369.25692    50.18562    53.47601     0.03307
      1960 124468.75233    50.43509    51.03557     0.03458
      1961 124568.32733    50.86558    57.62286     0.03089
      1962 124667.98199    51.53050    56.33459     0.03055
      1963 124767.71638    52.44428    49.96416     0.03282
      1964 124867.53055    53.54744    58.76270     0.02979
      1965 124967.42458    54.68479    46.23082     0.03538
      1966 125067.39852    55.61405    51.82883     0.03238
      1967 125167.45243    56.07009    51.76341     0.03439
      1968 125267.58640    55.89714    47.04273     0.03244
      1969 125367.80046    55.15162    50.39313     0.03019
      1970 125468.09471    54.05602    55.06566     0.03022
      1971 125568.46918    52.87034    55.16126     0.03078
      1972 125668.92396    51.79819    44.29987     0.03313
      1973 125769.45910    50.95025    53.66930     0.02998
      1974 125870.07466    50.34937    53.64377     0.02910
      1975 125970.77072    49.96002    61.85963     0.02817
      1976 126071.54734    49.72321    47.85773     0.03034
      1977 126172.40458    49.58251    49.86306     0.03132
      1978 126273.34250    49.49601    47.57733     0.02971
      1979 126374.36117    49.43763    41.98556     0.03268
      1980 126475.46066    49.39317    48.68874     0.03101
      1981 126576.64103    49.35564    48.76663     0.02700
      1982 126677.90235    49.32188    52.44703     0.02803
      1983 126779.24467    49.29042    44.14782     0.03018
      1984 126880.66806    49.26057    52.24874     0.02906
      1985 126982.17260    49.23195    44.92510     0.02885
      1986 127083.75834    49.20430    60.85138     0.02847
      1987 127185.42534    49.17744    48.26465     0.02887
      1988 127287.17368    49.15123    58.45282     0.02852
      1989 127389.00342    49.12558    49.90556     0.02687
      1990 127490.91462    49.10039    51.63640     0.02781
      1991 127592.90736    49.07560    46.68995     0.02931
      1992 127694.98168    49.05115    47.86333     0.02713
      1993 127797.13767    49.02700    44.29883     0.02835
      1994 127899.37538    49.00310    54.22362     0.02872
      1995 128001.69488    48.97944    48.84251     0.02788
      1996 128104.09623    48.95599    60.44921     0.02690
      1997 128206.57951    48.93272    56.13080     0.02590
      1998 128309.14477    48.90961    52.45666     0.02712
      1999 128411.79209    48.88667    50.92315     0.02825
      2000 128514.52152    48.86386    51.41635     0.02767
      2001 128617.33314    48.84118    47.93822     0.02972
      2002 128720.22701    48.81862    40.44590     0.02978
      2003 128823.20319    48.79618    50.99639     0.03114
      2004 128926.26175    48.77384    52.99271     0.02954
      2005 129029.40276    48.75161    43.98221     0.03013
      2006 129132.62628    48.72947    49.84252     0.02677
      2007 129235.93238    48.70743    48.48512     0.02866
      2008 129339.32113    48.68547    40.64591     0.03127
      2009 129442.79259    48.66360    43.98166     0.03052
      2010 129546.34682    48.64182    49.33091     0.02832
      2011 129649.98390    48.62011    46.10224     0.02865
      2012 129753.70389    48.59849    48.51313     0.02730
      2013 129857.50685    48.57694    43.75846     0.02823
      2014 129961.39285    48.55547    47.35964     0.02867
      2015 130065.36197    48.53408    46.06974     0.02817
      2016 130169.41426    48.51276    46.58646     0.02772
      2017 130273.54979    48.49151    51.61633     0.02872
      2018 130377.76863    48.46902    40.08386     0.03165
      2019 130482.07084    48.44413    40.30191     0.03068
      2020 130586.45650    48.42247    46.24732     0.02812
      2021 130690.92567    48.40157    54.29656     0.02682
      2022 130795.47841    48.38087    47.71264     0.03021
      2023 130900.11479    48.36025    37.84803     0.03040
      2024 131004.83488    48.33970    48.76087     0.02756
      2025 131109.63875    48.31921    52.89351     0.02606
      2026 131214.52646    48.29879    47.55240     0.02780
      2027 131319.49808    48.27843    43.60887     0.02757
      2028 131424.55368    48.25814    40.13099     0.02916
      2029 131529.69332    48.23791    41.05567     0.02890
      2030 131634.91708    48.21775    60.02512     0.02527
      2031 131740.22501    48.19766    44.59183     0.02744
      2032 131845.61719    48.17764    53.54129     0.02320
      2033 131951.09368    48.15769    56.11644     0.02475
      2034 132056.65456    48.13781    52.76099     0.02510
      2035 132162.29988    48.11800    39.64717     0.02808
      2036 132268.02972    48.09826    52.23972     0.02552
      2037 132373.84415    48.07859    49.58866     0.02853
      2038 132479.74322    48.05900    55.28228     0.02543
      2039 132585.72702    48.03949    50.66033     0.02560
      2040 132691.79560    48.02005    53.56664     0.02532
      2041 132797.94903    48.17602    53.71092     0.02750
      2042 132904.18739    48.76715    38.94158     0.02619
      2043 133010.51074    49.43605    61.59663     0.02182
      2044 133116.91915    49.59553    59.51024     0.02251
      2045 133223.41269    49.65880    47.56095     0.02110
      2046 133329.99142    49.70618    57.04923     0.02317
      2047 133436.65541    49.75340    43.93373     0.02548
      2048 133543.40474    49.80354    45.84518     0.02370
      2049 133650.23946    49.85766    50.84299     0.02258
      2050 133757.15965    49.91611    48.08214     0.02457
      2051 133864.16538    49.97921    46.70828     0.02569
      2052 133971.25671    50.04735    54.35282     0.02307
      2053 134078.43372    50.12092    44.38599     0.02549
      2054 134185.69646    50.20037    44.76339     0.02576
      2055 134293.04502    50.28621    47.02392     0.02437
      2056 134400.47946    50.37899    51.59746     0.02359
      2057 134507.99984    50.47932    43.82656     0.02490
      2058 134615.60624    50.58790    54.82456     0.02412
      2059 134723.29872    50.70564    53.28519     0.02224
      2060 134831.07736    50.83328    48.54287     0.02442
      2061 134938.94223    50.97178    51.24445     0.02576
      2062 135046.89338    51.12224    60.91333     0.02224
      2063 135154.93089    51.28587    53.72078     0.02255
      2064 135263.05484    51.46408    56.18563     0.02321
      2065 135371.26528    51.65845    45.31176     0.02334
      2066 135479.56229    51.87078    55.25635     0.02353
      2067 135587.94594    52.10314    49.65848     0.02364
      2068 135696.41630    52.35790    55.20016     0.02363
      2069 135804.97343    53.10815    49.41899     0.02456
      2070 135913.61741    54.03755    59.47533     0.02289
      2071 136022.34831    54.65430    48.83552     0.02273
      2072 136131.16619    55.12147    50.41971     0.02191
      2073 136240.07112    55.59732    54.22002     0.02265
      2074 136349.06318    56.11648    41.08705     0.02360
      2075 136458.14243    56.69139    60.79107     0.02119
      2076 136567.30894    57.33192    48.16201     0.02127
      2077 136676.56279    58.04836    65.60340     0.01865
      2078 136785.90404    58.85359    61.86987     0.02235
      2079 136895.33276    59.76272    55.05293     0.02275
      2080 137004.84903    60.79381    51.75828     0.02252
      2081 137114.45291    61.96964    48.25166     0.02328
      2082 137224.14447    63.31875    54.03531     0.02278
      2083 137333.92378    64.87798    54.19420     0.02035
      2084 137443.79092    66.69749    62.52681     0.02024
      2085 137553.74596    68.85258    72.01249     0.01910
      2086 137663.78895    71.47255    62.70634     0.02013
      2087 137773.91998    74.80842    72.47935     0.01807
      2088 137884.13912    79.38088    57.59104     0.01859
      2089 137994.44643    86.26913    62.63563     0.01958
      2090 138104.84199    97.60095    75.89405     0.01781
      2091 138215.32586   117.24387    85.51758     0.01563
      2092 138325.89812   151.53039   105.19293     0.01320
      2093 138436.55884   209.57929   180.11769     0.01004
      2094 138547.30809   302.51923   246.77418     0.00735
      2095 138658.14593   440.93941   388.03344     0.00499
      2096 138769.07245   630.45031   600.79834     0.00334
      2097 138880.08771   866.29803   884.42839     0.00232
      2098 138991.19178  1128.94589  1157.09144     0.00179
      2099 139102.38473  1382.69205  1457.48010     0.00143
      2100 139213.66664  1579.45015  1587.88892     0.00132
      2101 139325.03757  1671.43144  1633.78918     0.00129
      2102 139436.49760  1633.03043  1535.62338     0.00137
      2103 139548.04680  1475.98568  1351.30199     0.00155
      2104 139659.68524  1241.30018  1173.11667     0.00177
      2105 139771.41299   978.31113   843.50503     0.00244
      2106 139883.23012   728.64694   671.39454     0.00302
      2107 139995.13670   518.96356   475.69798     0.00410
      2108 140107.13281   360.03241   360.05600     0.00536
      2109 140219.21852   250.02523   265.32513     0.00692
      2110 140331.39389   179.81898   196.08877     0.00902
      2111 140443.65901   138.07764   162.70129     0.01034
      2112 140556.01393   114.66502   126.68557     0.01201
      2113 140668.45875   102.11042    91.23647     0.01483
      2114 140780.99351    95.66180    95.93296     0.01472
      2115 140893.61831    92.68352    86.75132     0.01593
      2116 141006.33320    91.98215    74.95776     0.01705
      2117 141119.13827    93.36646    99.88304     0.01464
      2118 141232.03358    97.54366    94.17328     0.01499
      2119 141345.01921   106.34419    94.54253     0.01479
      2120 141458.09522   123.18710   110.59071     0.01317
      2121 141571.26170   153.57140   146.62181     0.01084
      2122 141684.51871   205.19347   152.89906     0.00995
      2123 141797.86632   287.13985   278.06334     0.00652
      2124 141911.30462   407.68335   399.06872     0.00462
      2125 142024.83366   570.68356   588.41064     0.00323
      2126 142138.45353   771.40613   814.89707     0.00238
      2127 142252.16429   993.22656  1051.75484     0.00187
      2128 142365.96602  1206.74015  1273.96026     0.00154
      2129 142479.85879  1372.84896  1395.37679     0.00140
      2130 142593.84268  1452.65470  1444.67632     0.00135
      2131 142707.91775  1424.53167  1323.24108     0.00147
      2132 142822.08409  1296.55695  1150.38650     0.00166
      2133 142936.34176  1101.04146   994.77870     0.00194
      2134 143050.69083   878.16153   766.68012     0.00240
      2135 143165.13138   662.80687   580.80065     0.00322
      2136 143279.66349   478.31524   436.81504     0.00406
      2137 143394.28722   335.25556   323.92043     0.00565
      2138 143509.00265   233.59581   220.88334     0.00727
      2139 143623.80985   166.69358   184.85714     0.00879
      2140 143738.70890   125.40465   139.51493     0.01052
      2141 143853.69986   101.06910    96.91593     0.01318
      2142 143968.78282    86.98496    94.70239     0.01387
      2143 144083.95785    78.66497    94.07463     0.01547
      2144 144199.22502    73.43229    71.75087     0.01456
      2145 144314.58440    69.83333    74.17542     0.01732
      2146 144430.03606    67.13257    63.72083     0.01676
      2147 144545.58009    64.97141    68.86279     0.01583
      2148 144661.21656    63.17263    65.67335     0.01839
      2149 144776.94553    61.64161    54.33551     0.01748
      2150 144892.76709    60.32110    68.99243     0.01874
      2151 145008.68130    59.17194    37.20658     0.02039
      2152 145124.68825    58.16489    58.71141     0.01760
      2153 145240.78800    57.27709    51.06836     0.01920
      2154 145356.98063    56.49022    57.62244     0.01832
      2155 145473.26621    55.78945    55.18405     0.01856
      2156 145589.64482    55.16303    58.25698     0.01816
      2157 145706.11654    54.49422    60.07789     0.01890
      2158 145822.68143    52.88088    52.26318     0.01931
      2159 145939.33958    52.18612    43.49983     0.02193
      2160 146056.09105    51.77084    54.35738     0.01933
      2161 146172.93592    51.43107    56.54801     0.01870
      2162 146289.87427    51.12865    55.79736     0.01816
      2163 146406.90617    50.85445    72.49834     0.01677
      2164 146524.03170    50.60406    62.76453     0.01857
      2165 146641.25092    50.37487    43.38729     0.01960
      2166 146758.56392    50.16461    54.04724     0.02094
      2167 146875.97077    49.97132    60.10537     0.01680
      2168 146993.47155    49.79328    47.27800     0.01868
      2169 147111.06633    49.62899    52.35593     0.01854
      2170 147228.75518    49.47713    43.93017     0.01869
      2171 147346.53818    49.33655    49.44769     0.01881
      2172 147464.41541    49.20621    35.88385     0.02187
      2173 147582.38695    49.08525    33.70478     0.02039
      2174 147700.45286    48.97291    42.18988     0.02072
      2175 147818.61322    48.86835    54.93288     0.01992
      2176 147936.86811    48.77095    52.44528     0.02003
      2177 148055.21760    48.68012    56.24994     0.01701
      2178 148173.66178    48.59535    49.66821     0.01924
      2179 148292.20071    48.51618    48.99689     0.02011
      2180 148410.83447    48.44219    57.14251     0.01770
      2181 148529.56314    48.37300    55.01560     0.01821
      2182 148648.38679    48.30827    47.00214     0.02305
      2183 148767.30550    48.24770    55.66744     0.01776
      2184 148886.31934    48.19100    55.63114     0.01621
      2185 149005.42840    48.13791    60.44280     0.01699
      2186 149124.63274    48.08826    56.72423     0.01979
      2187 149243.93244    48.03802    44.94303     0.02072
      2188 149363.32759    47.42175    46.72399     0.02207
      2189 149482.81825    46.75370    56.55352     0.01670
      2190 149602.40451    46.66532    34.73027     0.02155
      2191 149722.08643    46.65667    39.50950     0.02042
      2192 149841.86410    46.66125    34.10239     0.01977
      2193 149961.73759    46.66859    40.83422     0.01915
      2194 150081.70698    46.67624    62.55263     0.01743
      2195 150201.77235    46.68419    46.68726     0.02040
      2196 150321.93376    46.69245    54.54747     0.01733
      2197 150442.19131    46.70103    44.01340     0.01898
      2198 150562.54506    46.70992    47.55659     0.01918
      2199 150682.99510    46.71912    47.86488     0.01806
      2200 150803.54150    46.72864    46.05007     0.01942
      2201 150924.18433    46.73849    37.99998     0.01913
      2202 151044.92368    46.74866    38.07535     0.01891
      2203 151165.75962    46.75915    54.34924     0.01720
      2204 151286.69222    46.76997    36.43300     0.01956
      2205 151407.72158    46.78112    43.75740     0.01885
      2206 151528.84776    46.79260    54.55574     0.01670
      2207 151650.07083    46.80441    62.95363     0.01603
      2208 151771.39089    46.81656    57.92864     0.01581
      2209 151892.80800    46.83854    54.03042     0.01883
      2210 152014.32225    46.86206    49.58249     0.01825
      2211 152135.93371    46.87799    61.07385     0.01741
      2212 152257.64245    46.89254    37.60194     0.01924
      2213 152379.44857    46.90719    43.41914     0.01848
      2214 152501.35213    46.92218    51.11548     0.01845
      2215 152623.35321    46.93755    55.32444     0.01803
      2216 152745.45189    46.95332    56.71649     0.01673
      2217 152867.64825    46.96948    51.09720     0.01672
      2218 152989.94237    46.98605    57.33533     0.01649
      2219 153112.33433    47.00303    65.64513     0.01623
      2220 153234.82419    47.02043    65.42049     0.01709
      2221 153357.41205    47.03825    51.40079     0.02000
      2222 153480.09798    47.05650    42.15398     0.02013
      2223 153602.88206    47.07518    47.12058     0.01872
      2224 153725.76437    47.09430    57.48620     0.01664
      2225 153848.74498    47.11388    48.94894     0.01607
      2226 153971.82397    47.13391    44.69011     0.01856
      2227 154095.00143    47.15440    48.12529     0.01742
      2228 154218.27743    47.17537    37.10157     0.02063
      2229 154341.65206    47.19683    40.46062     0.01964
      2230 154465.12538    47.21879    37.94704     0.01951
      2231 154588.69748    47.24125    46.67193     0.01798
      2232 154712.36844    47.26423    43.61108     0.01797
      2233 154836.13833    47.28775    53.23578     0.01938
      2234 154960.00724    47.31182    45.91448     0.01750
      2235 155083.97525    47.33645    54.81227     0.01759
      2236 155208.04243    47.36166    54.62837     0.01653
      2237 155332.20886    47.38748    52.66399     0.01809
      2238 155456.47463    47.41393    52.32974     0.01746
      2239 155580.83981    47.44103    57.89201     0.01642
      2240 155705.30448    47.46880    47.76860     0.01707
      2241 155829.86872    47.49729    55.40113     0.01619
      2242 155954.53262    47.52652    53.24768     0.01649
      2243 156079.29624    47.55653    46.87917     0.01684
      2244 156204.15968    47.58737    37.56862     0.01840
      2245 156329.12301    47.61909    31.50409     0.01977
      2246 156454.18631    47.65176    31.45028     0.01784
      2247 156579.34966    47.68543    52.85084     0.01699
      2248 156704.61314    47.72019    38.73912     0.01657
      2249 156829.97683    47.75613    36.94179     0.01745
      2250 156955.44081    47.79336    41.01012     0.01631
      2251 157081.00516    47.83200    55.24208     0.01679
      2252 157206.66996    47.87220    46.52128     0.01589
      2253 157332.43530    47.91414    50.88250     0.01746
      2254 157458.30125    47.95803    46.30896     0.01675
      2255 157584.26789    48.00414    57.66442     0.01621
      2256 157710.33530    48.05279    47.72078     0.01567
      2257 157836.50357    48.10439    53.90664     0.01830
      2258 157962.77278    48.15952    47.84241     0.01698
      2259 158089.14299    48.21905    48.19380     0.01988
      2260 158215.61431    48.28439    52.03999     0.01697
      2261 158342.18680    48.35817    56.24495     0.01695
      2262 158468.86055    48.44532    49.12160     0.01427
      2263 158595.63564    48.55520    42.77232     0.01732
      2264 158722.51215    48.70488    53.84997     0.01543
      2265 158849.49016    48.92384    55.45070     0.01679
      2266 158976.56975    49.25936    55.41912     0.01655
      2267 159103.75100    49.78092    55.97184     0.01610
      2268 159231.03400    50.58031    64.14631     0.01638
      2269 159358.41883    51.76347    74.17363     0.01558
      2270 159485.90557    53.43035    61.00858     0.01714
      2271 159613.49429    55.64296    55.50971     0.01591
      2272 159741.18509    58.38638    65.07332     0.01625
      2273 159868.97803    61.53351    66.68814     0.01709
      2274 159996.87322    64.82509    59.88890     0.01521
      2275 160124.87072    67.87484    72.02089     0.01508
      2276 160252.97061    70.21265    66.16404     0.01383
      2277 160381.17299    71.39134    79.96460     0.01424
      2278 160509.47793    71.15624    84.86008     0.01391
      2279 160637.88551    69.57252    84.65964     0.01364
      2280 160766.39582    66.98698    71.66863     0.01525
      2281 160895.00893    63.86925    55.48515     0.01664
      2282 161023.72494    60.66650    58.32494     0.01647
      2283 161152.54392    57.72320    59.38327     0.01723
      2284 161281.46596    55.25107    59.53753     0.01773
      2285 161410.49113    53.33267    64.78490     0.01600
      2286 161539.61952    51.94838    45.62462     0.01910
      2287 161668.85122    51.01546    56.12779     0.01601
      2288 161798.18630    50.42636    57.60051     0.01700
      2289 161927.62485    50.07723    54.24554     0.01642
      2290 162057.16695    49.88349    54.45459     0.01685
      2291 162186.81268    49.78427    68.17765     0.01712
      2292 162316.56213    49.73997    48.17690     0.01769
      2293 162446.41538    49.72684    47.61712     0.01939
      2294 162576.37251    49.73162    48.71620     0.01835
      2295 162706.43361    49.74725    47.33082     0.01963
      2296 162836.59876    49.77004    44.30013     0.01997
      2297 162966.86804    49.79804    63.83790     0.01884
      2298 163097.24153    49.83014    52.11276     0.01811
      2299 163227.71932    49.86563    46.49226     0.01945
      2300 163358.30150    49.90403    43.76967     0.02075
      2301 163488.98814    49.94498    47.51315     0.02040
      2302 163619.77933    49.98818    51.24980     0.02006
      2303 163750.67516    50.03341    47.61818     0.01933
      2304 163881.67570    50.08046    47.79188     0.02033
      2305 164012.78104    50.12918    54.13533     0.01887
      2306 164143.99126    50.17943    56.10939     0.02011
      2307 164275.30645    50.23111    36.30696     0.02142
      2308 164406.72670    50.28412    49.14884     0.01985
      2309 164538.25208    50.33838    51.46261     0.01798
      2310 164669.88268    50.39383    40.24602     0.02012
      2311 164801.61859    50.45040    51.45054     0.01788
      2312 164933.45988    50.50804    43.63645     0.02140
      2313 165065.40665    50.56672    55.29136     0.01722
      2314 165197.45898    50.62639    67.41241     0.01674
      2315 165329.61694    50.68703    47.28643     0.01745
      2316 165461.88064    50.74862    46.47153     0.02040
      2317 165594.25014    50.81112    53.78761     0.01849
      2318 165726.72554    50.87451    47.13031     0.01909
      2319 165859.30692    50.93879    54.74769     0.02166
      2320 165991.99437    51.00394    40.86880     0.02200
      2321 166124.78796    51.06994    43.67610     0.02389
      2322 166257.68779    51.13678    56.61594     0.02035
      2323 166390.69394    51.20446    43.55321     0.01939
      2324 166523.80650    51.27297    53.16109     0.01893
      2325 166657.02554    51.34230    48.31654     0.01985
      2326 166790.35116    51.41244    50.67935     0.01917
      2327 166923.78345    51.48339    50.74633     0.02046
      2328 167057.32247    51.55515    46.07215     0.01893
      2329 167190.96833    51.62771    54.91315     0.02126
      2330 167324.72110    51.70108    47.38870     0.02246
      2331 167458.58088    51.77524    49.63768     0.01996
      2332 167592.54775    51.85020    59.86226     0.01996
      2333 167726.62178    51.92597    47.49671     0.01899
      2334 167860.80308    52.00253    49.40224     0.02002
      2335 167995.09172    52.07988    56.38946     0.01857
      2336 168129.48780    52.15804    47.56507     0.01970
      2337 168263.99139    52.23700    44.27085     0.02022
      2338 168398.60258    52.31676    50.31605     0.02283
      2339 168533.32146    52.39732    51.96251     0.02090
      2340 168668.14812    52.47869    53.37301     0.02020
      2341 168803.08264    52.56063    51.00208     0.01881
      2342 168938.12511    52.62945    54.21532     0.01970
      2343 169073.27561    52.70711    52.92418     0.01928
      2344 169208.53423    52.79160    61.59435     0.02120
      2345 169343.90105    52.87754    61.04988     0.01938
      2346 169479.37617    52.96438    54.37216     0.01948
      2347 169614.95967    53.05201    57.95335     0.02050
      2348 169750.65164    53.14044    46.36509     0.02127
      2349 169886.45216    53.22968    42.39402     0.02118
      2350 170022.36133    53.31973    38.96327     0.02068      	
