
data_d6_MAPbI3_10K
_chemical_name_common           'd6-methylammonium lead iodide'
_chemical_formula_sum            'C H0.38 D5.62 I3 N Pb'
_chemical_formula_moiety         'I3 Pb, (C H0.19 D2.81), (H0.19 D2.81 N)'
_chemical_formula_weight         625.9
_exptl_crystal_colour            black
_exptl_crystal_description       powder
_publ_requested_journal          'Nature Communications'
_publ_section_title
; Structures and Phase Transitions of the Organic-Inorganic Hybrid 
 Perovskite Methyl Ammonium Lead Iodide
;
_publ_contact_author             'Pamela Whitfield'
_publ_contact_author_email       whitfieldps@ornl.gov
loop_
_publ_author_name        
'Whitfield, P.S.'
'Herron, N'
'Giuse, N'
'Page, K'
'Cheng, Y.Q.'
'Milas, I'
'Crawford, M.K.'
_diffrn_ambient_temperature      10
_cell_measurement_temperature    10
_pd_spec_mounting                '8mm diameter vanadium can'
_pd_spec_mount_mode              transmission
_pd_spec_shape                   cylinder
_cell_measurement_reflns_used    10209  
_diffrn_source                   'spallation source'
_diffrn_radiation_type           neutron
_diffrn_detector                 '6Li scintillation wavelength-shifting fibre'
_diffrn_measurement_device_type  'time-of-flight neutron powder diffractometer'
_pd_instr_location               'POWGEN diffractometer, SNS, ORNL (USA)'
_pd_meas_scan_method             tof
_pd_instr_dist_src/spec          60000
_pd_instr_dist_spec/detc         3000 #distance for 90deg detectors
# detector distances increase from 2.5 metres at backscattering to 
#  4.5 metres at forward scattering
_pd_meas_2theta_fixed            90 #data from all detectors focussed at 90deg 
_diffrn_measurement_method       'neutron time-event mode'
loop_
_diffrn_radiation_wavelength     
1.066
2.665
# 1 Angstrom bandwith with centre wavelengths of 1.066 and 2.665 Angstrom
loop_
_atom_type_symbol
_atom_type_scat_length_neutron
_atom_type_scat_source
C 0.6646 International_Tables_Vol_C
N 0.9360 International_Tables_Vol_C
Pb 0.9405 International_Tables_Vol_C
I 0.528 International_Tables_Vol_C
H -0.3739 International_Tables_Vol_C
D 0.6671 International_Tables_Vol_C
_diffrn_reflns_number            10209
_reflns_number_total             10209
_reflns_number_gt                ?
_reflns_threshold_expression     ?
_diffrn_reflns_theta_max         ?
_diffrn_reflns_limit_h_min       0
_diffrn_reflns_limit_h_max       23
_diffrn_reflns_limit_k_min       0
_diffrn_reflns_limit_k_max       33
_diffrn_reflns_limit_l_min       0
_diffrn_reflns_limit_l_max       23
_diffrn_standards_number         ?
_diffrn_standards_interval_count ?
_diffrn_standards_interval_time  ?
_diffrn_standards_decay_%        ?
_pd_proc_ls_special_details      
'co-refinement of 2 datasets with centre wavelengths 1.066 and 2.665A' 
_computing_structure_solution    'TOPAS'
_computing_data_collection       'SNS pyDAS'
_computing_cell_refinement       'TOPAS'
_computing_data_reduction        'Mantid'
_pd_proc_ls_profile_function     'back-to-back exponentials with pseudo-Voigt'
_pd_proc_ls_background_function  'Chebychev polynomial'
_refine_ls_structure_factor_coef Inet
_refine_ls_matrix_type           full
_refine_ls_weighting_scheme      'sigma'
_refine_ls_weighting_details
'w = 1/sigma\^2'
_refine_diff_density_max         ?
_refine_diff_density_min         ?
_refine_ls_number_reflns         10209
_pd_proc_ls_prof_wR_factor       0.0214
_refine_ls_wR_factor_ref         0.0214
_refine_ls_R_factor_gt           ?
_refine_ls_goodness_of_fit_all   2.71
_refine_ls_goodness_of_fit_ref   2.71
_refine_ls_hydrogen_treatment    refall
_refine_ls_number_parameters     104
_refine_ls_shift/su_max          0.73820

_cell_length_a                   8.81155(6)
_cell_length_b                   12.58714(9)
_cell_length_c                   8.55975(6)
_cell_angle_alpha                90
_cell_angle_beta                 90
_cell_angle_gamma                90
_cell_volume                     949.381(12)
_space_group_crystal_system      orthorhombic
_symmetry_space_group_name_H-M   'P n m a'
_symmetry_space_group_name_Hall  '-P 2ac 2n'
_symmetry_Int_Tables_number      62
_cell_formula_units_Z            4
_exptl_crystal_density_diffrn    4.353 
_exptl_absorpt_coefficient_mu    0
_exptl_absorpt_correction_type   cylinder
_exptl_absorpt_process_details  
'Lobanov, 6th EPDIC, Abstract.P12-16, Aug.22-25, 1998'
loop_
_symmetry_equiv_pos_as_xyz
'x, y, z '
'-x, y+1/2, -z '
'-x+1/2, -y, z+1/2 '
'-x+1/2, y+1/2, z+1/2 '
'x, -y+1/2, z '
'-x, -y, -z '
'x+1/2, -y+1/2, -z+1/2 '
'x+1/2, y, -z+1/2 '
loop_
_atom_site_label
_atom_site_type_symbol
_atom_site_fract_x
_atom_site_fract_y
_atom_site_fract_z
_atom_site_occupancy
_atom_site_symmetry_multiplicity
_atom_site_adp_type
_atom_site_U_iso_or_equiv
N1 N -0.06052(11) 0.25 0.02759(12) 1 4 Biso 0
C1 C 0.08317(15) 0.25 -0.06621(18) 1 4 Biso 0
D2C D 0.14545(15) 0.17936(13) -0.03842(17) 0.937(2) 8 Biso 0
D2C H 0.14545(15) 0.17936(13) -0.03842(17) 0.063(2) 8 Biso 0
D1C D 0.0526(2) 0.25 -0.1888(2) 0.937(2) 4 Biso 0
D1C H 0.0526(2) 0.25 -0.1888(2) 0.063(2) 4 Biso 0
D1N D -0.12457(15) 0.31573(12) 0.00158(18) 0.937(2) 8 Biso 0
D1N H -0.12457(15) 0.31573(12) 0.00158(18) 0.063(2) 8 Biso 0
D2N D -0.0385(3) 0.25 0.14478(19) 0.937(2) 4 Biso 0
D2N H -0.0385(3) 0.25 0.14478(19) 0.063(2) 4 Biso 0
Pb1 Pb 0.5 0 0 1.010(3) 4 Biso 0
I1 I 0.01553(19) 0.25 -0.55368(16) 1 4 Biso 0
I2 I 0.31279(12) 0.01664(8) -0.31642(12) 1 8 Biso 0
loop_
_atom_site_aniso_label
_atom_site_aniso_U_11
_atom_site_aniso_U_22
_atom_site_aniso_U_33
_atom_site_aniso_U_12
_atom_site_aniso_U_13
_atom_site_aniso_U_23
N1 0.0063(4) 0.0079(5) 0.0050(4) 0 0.0007(3) 0
C1 0.0037(6) 0.0077(6) 0.0117(7) 0 0.0039(5) 0
D2C 0.0201(7) 0.0213(7) 0.0346(9) 0.0150(5) 0.0087(6) 0.0075(6)
D2C 0.0201(7) 0.0213(7) 0.0346(9) 0.0150(5) 0.0087(6) 0.0075(6)
D1C 0.0208(10) 0.0400(13) 0.0067(8) 0 0.0048(7) 0
D1C 0.0208(10) 0.0400(13) 0.0067(8) 0 0.0048(7) 0
D1N 0.0210(7) 0.0233(8) 0.0284(7) 0.0156(6) 0.0032(7) 0.0062(7)
D1N 0.0210(7) 0.0233(8) 0.0284(7) 0.0156(6) 0.0032(7) 0.0062(7)
D2N 0.0313(13) 0.0306(12) 0.0027(7) 0 -0.0006(7) 0
D2N 0.0313(13) 0.0306(12) 0.0027(7) 0 -0.0006(7) 0
Pb1 0.0012(3) 0.0009(3) 0.0005(3) 0 0 0.0006(3)
I1 0.0077(7) 0.0004(5) 0.0029(6) 0 0.0000(5) 0
I2 0.0025(4) 0.0024(4) 0.0025(4) -0.0007(3) -0.0014(3) 0.0004(3)
loop_
_geom_bond_atom_site_label_1
_geom_bond_atom_site_label_2
_geom_bond_distance
_geom_bond_site_symmetry_1
_geom_bond_site_symmetry_2
N1 D2N 1.0218(19) 1_555 1_555
N1 D1N 1.0260(16) 1_555 1_555
N1 D1N 1.0260(16) 1_555 5_555
N1 C1 1.4992(17) 1_555 1_555
C1 D2C 1.0716(17) 1_555 1_555
C1 D2C 1.0716(17) 1_555 5_555
C1 D1C 1.083(2) 1_555 1_555
C1 N1 1.4992(17) 1_555 1_555
D2C C1 1.0716(17) 1_555 1_555
D2C I2 3.1357(19) 1_555 3_555
D1C C1 1.083(2) 1_555 1_555
D1C I1 3.140(2) 1_555 1_555
D1N N1 1.0260(16) 1_555 1_555
D2N N1 1.0218(19) 1_555 1_555
D2N I1 2.625(2) 1_555 1_556
Pb1 I2 3.1782(10) 1_555 1_555
Pb1 I2 3.1796(10) 1_555 8_554
Pb1 I1 3.1831(2) 1_555 7_554
I1 D2N 2.625(2) 1_555 1_554
I1 D1C 3.140(2) 1_555 1_555
I2 D1N 2.6960(19) 1_555 7_554
I2 D2C 3.1357(19) 1_555 3_554
loop_
_geom_angle_atom_site_label_1
_geom_angle_atom_site_label_2
_geom_angle_atom_site_label_3
_geom_angle
_geom_angle_site_symmetry_1
_geom_angle_site_symmetry_2
_geom_angle_site_symmetry_3
D1N N1 D2N 108.52(13) 1_555 1_555 1_555
D1N N1 D1N 107.49(18) 5_555 1_555 1_555
C1 N1 D1N 110.39(11) 1_555 1_555 5_555
C1 N1 D2N 111.41(15) 1_555 1_555 1_555
D2C C1 D2C 112.1(2) 5_555 1_555 1_555
D1C C1 D2C 110.03(13) 1_555 1_555 5_555
N1 C1 D1C 107.96(16) 1_555 1_555 1_555
N1 C1 D2C 108.28(11) 1_555 1_555 5_555
I2 D2C D1N 118.78(6) 3_555 1_555 1_555
I2 D2C D2N 88.57(5) 3_555 1_555 1_555
I2 D2C D1N 92.87(6) 3_555 1_555 5_555
I2 D2C N1 105.76(6) 3_555 1_555 1_555
I2 D2C D2C 141.88(3) 3_555 1_555 5_555
I2 D2C D1C 153.18(9) 3_555 1_555 1_555
I2 D2C C1 147.93(13) 3_555 1_555 1_555
I1 D1C D2N 158.35(10) 1_555 1_555 1_555
I1 D1C D1N 127.36(9) 1_555 1_555 1_555
I1 D1C N1 145.76(10) 1_555 1_555 1_555
I1 D1C D2C 140.64(8) 1_555 1_555 5_555
I1 D1C C1 171.55(17) 1_555 1_555 1_555
I2 D1N D2C 95.67(7) 7_454 1_555 5_555
I2 D1N D1C 90.22(6) 7_454 1_555 1_555
I2 D1N C1 109.01(7) 7_454 1_555 1_555
I2 D1N D2N 156.43(9) 7_454 1_555 1_555
I2 D1N D1N 141.50(4) 7_454 1_555 5_555
I2 D1N N1 150.61(13) 7_454 1_555 1_555
I1 D2N D2C 121.00(9) 1_556 1_555 5_555
I1 D2N C1 138.87(11) 1_556 1_555 1_555
I1 D2N D1N 143.90(9) 1_556 1_555 5_555
I1 D2N N1 179.48(18) 1_556 1_555 1_555
D1C D2N I1 153.87(11) 1_555 1_555 1_556
D1C D2N D1N 54.09(8) 1_555 1_555 5_555
I2 Pb1 I2 180.0000(13) 6_655 1_555 1_555
I2 Pb1 I2 88.601(10) 8_554 1_555 6_655
I2 Pb1 I2 91.399(10) 8_554 1_555 1_555
I1 Pb1 I2 91.78(3) 7_554 1_555 3_555
I1 Pb1 I2 88.22(3) 7_554 1_555 8_554
I1 Pb1 I2 85.40(3) 7_554 1_555 6_655
I1 Pb1 I2 94.60(3) 7_554 1_555 1_555
I1 Pb1 I1 180.0000(15) 3_555 1_555 7_554
D1C I1 D2N 175.52(9) 1_555 1_555 1_554
Pb1 I1 D1C 82.00(2) 3_554 1_555 1_555
Pb1 I1 D2N 97.71(3) 3_554 1_555 1_554
Pb1 I1 Pb1 162.67(5) 4_554 1_555 3_554
D2C I2 D1N 103.62(5) 3_554 1_555 7_554

data_d6_MAPbI3_10K_p_01
_diffrn_radiation_wavelength     1.066
# 1 Angstrom bandwith with centre wavelengths of 1.066 Angstrom
loop_
_pd_proc_point_id
_pd_meas_time_of_flight
_pd_proc_d_spacing
_pd_proc_intensity_total
_pd_calc_intensity_total
_pd_proc_ls_weight
         1  8398.56438     0.37198    61.98692    53.04141     5.49161
         2  8405.28323     0.37227    60.57331    55.04080     5.59695
         3  8412.00746     0.37257    61.46843    56.90166     5.54047
         4  8418.73706     0.37287    62.99477    58.41988     5.44547
         5  8425.47205     0.37317    63.84250    59.36941     5.39983
         6  8432.21243     0.37347    63.39757    59.79765     5.43948
         7  8438.95820     0.37377    63.69864    60.05840     5.42520
         8  8445.70937     0.37406    62.16328    60.27236     5.53879
         9  8452.46593     0.37436    62.39542    60.32986     5.53073
        10  8459.22791     0.37466    62.16153    60.38628     5.55898
        11  8465.99529     0.37496    62.90274    60.39543     5.52048
        12  8472.76809     0.37526    61.99204    60.30409     5.59970
        13  8479.54630     0.37556    61.91849    60.22202     5.61744
        14  8486.32994     0.37586    62.39457    60.26140     5.59230
        15  8493.11900     0.37616    60.96694    60.45403     5.70447
        16  8499.91350     0.37646    60.98632    60.75593     5.71137
        17  8506.71343     0.37676    60.64391    61.07225     5.74735
        18  8513.51880     0.37707    62.12063    61.48356     5.65070
        19  8520.32961     0.37737    61.70789    61.96096     5.69560
        20  8527.14588     0.37767    63.92350    62.12085     5.55385
        21  8533.96759     0.37797    63.79818    62.02545     5.58069
        22  8540.79477     0.37827    62.74377    61.88161     5.67207
        23  8547.62740     0.37858    63.01063    61.58640     5.66751
        24  8554.46550     0.37888    62.08820    61.37068     5.74733
        25  8561.30908     0.37918    60.81044    61.45729     5.85340
        26  8568.15812     0.37949    61.18834    61.94062     5.83375
        27  8575.01265     0.37979    62.58598    62.55708     5.74172
        28  8581.87266     0.38009    64.41343    63.07427     5.62736
        29  8588.73816     0.38040    65.13202    63.49038     5.59809
        30  8595.60915     0.38070    63.49287    63.98360     5.73768
        31  8602.48564     0.38100    64.26950    64.55224     5.70437
        32  8609.36763     0.38131    66.01679    64.93614     5.60059
        33  8616.25512     0.38161    66.37906    64.87112     5.59163
        34  8623.14812     0.38192    65.30786    64.63365     5.68256
        35  8630.04664     0.38222    64.96774    64.45671     5.72364
        36  8636.95068     0.38253    64.84745    64.26502     5.74811
        37  8643.86024     0.38284    63.90194    64.20706     5.83063
        38  8650.77533     0.38314    64.97427    64.12853     5.76353
        39  8657.69595     0.38345    64.91102    64.02067     5.77501
        40  8664.62211     0.38376    65.10063    63.75575     5.76437
        41  8671.55380     0.38406    64.84029    63.11905     5.78554
        42  8678.49105     0.38437    62.54335    62.65530     5.95900
        43  8685.43384     0.38468    61.63551    62.51426     6.03603
        44  8692.38219     0.38498    62.24820    62.33599     6.00236
        45  8699.33609     0.38529    61.35686    62.07684     6.09178
        46  8706.29556     0.38560    60.83098    62.27601     6.15589
        47  8713.26060     0.38591    61.74762    62.96153     6.10435
        48  8720.23121     0.38622    62.33806    63.65387     6.07793
        49  8727.20739     0.38653    64.23866    64.06610     5.95370
        50  8734.18916     0.38684    64.88404    64.22255     5.92882
        51  8741.17651     0.38714    65.17786    64.02362     5.92984
        52  8748.16945     0.38745    64.60904    63.59629     5.98977
        53  8755.16798     0.38776    64.04347    63.10370     6.04491
        54  8762.17212     0.38807    62.89920    62.76034     6.14207
        55  8769.18186     0.38838    61.94216    62.76478     6.22459
        56  8776.19720     0.38869    62.51737    63.12094     6.18536
        57  8783.21816     0.38901    63.42102    63.64230     6.12449
        58  8790.24473     0.38932    64.30937    64.07782     6.06834
        59  8797.27693     0.38963    64.99334    64.30923     6.02754
        60  8804.31475     0.38994    64.58215    64.49798     6.06697
        61  8811.35820     0.39025    64.40093    64.57356     6.08664
        62  8818.40729     0.39056    64.23565    64.58230     6.10525
        63  8825.46202     0.39088    63.69832    64.56291     6.15535
        64  8832.52239     0.39119    64.88579    64.88158     6.07603
        65  8839.58840     0.39150    64.52669    65.52395     6.11708
        66  8846.66007     0.39181    66.12921    65.95788     6.01228
        67  8853.73740     0.39213    66.89860    66.05383     5.97013
        68  8860.82039     0.39244    66.21468    66.26195     6.03379
        69  8867.90905     0.39275    66.46605    66.47500     6.02953
        70  8875.00338     0.39307    66.00056    66.25676     6.07766
        71  8882.10338     0.39338    65.89036    66.21196     6.09809
        72  8889.20906     0.39370    65.46774    66.30982     6.14020
        73  8896.32043     0.39401    65.79393    66.47091     6.12579
        74  8903.43748     0.39433    66.64922    66.50730     6.07563
        75  8910.56023     0.39464    67.39032    66.13412     6.04008
        76  8917.68868     0.39496    66.22288    65.77118     6.14885
        77  8924.82283     0.39527    64.36917    65.42474     6.31389
        78  8931.96269     0.39559    64.92846    65.15786     6.28727
        79  8939.10826     0.39591    62.75506    65.08784     6.47418
        80  8946.25955     0.39622    64.74642    64.89837     6.32148
        81  8953.41656     0.39654    64.69673    64.53180     6.33267
        82  8960.57929     0.39686    63.33527    64.16302     6.45208
        83  8967.74775     0.39717    63.15694    63.91034     6.48072
        84  8974.92195     0.39749    62.76856    63.69764     6.52828
        85  8982.10189     0.39781    61.33305    63.60672     6.66214
        86  8989.28757     0.39813    61.88122    63.84218     6.62407
        87  8996.47900     0.39845    62.47512    64.61709     6.58283
        88  9003.67618     0.39877    63.26070    65.90841     6.52758
        89  9010.87912     0.39908    66.35318    66.83317     6.29447
        90  9018.08783     0.39940    66.68624    66.85643     6.28551
        91  9025.30230     0.39972    65.74459    66.62078     6.37743
        92  9032.52254     0.40004    65.18500    66.60155     6.43959
        93  9039.74856     0.40036    64.68062    66.88442     6.49583
        94  9046.98036     0.40068    66.31373    66.86299     6.37884
        95  9054.21794     0.40100    66.15578    66.22521     6.40150
        96  9061.46132     0.40132    65.37436    65.40450     6.47006
        97  9068.71048     0.40164    63.80514    64.86686     6.60259
        98  9075.96545     0.40197    61.65916    64.43268     6.79405
        99  9083.22623     0.40229    62.15451    64.31266     6.76265
       100  9090.49281     0.40261    61.52856    64.83658     6.83009
       101  9097.76520     0.40293    63.62587    65.51692     6.66353
       102  9105.04341     0.40325    64.94457    65.60552     6.57279
       103  9112.32745     0.40357    64.58989    65.69008     6.62403
       104  9119.61731     0.40390    64.98365    66.06540     6.61394
       105  9126.91300     0.40422    66.02796    66.31970     6.55085
       106  9134.21453     0.40454    66.51320    66.20505     6.53058
       107  9141.52191     0.40487    65.44020    65.59245     6.63151
       108  9148.83512     0.40519    64.70387    65.07087     6.70213
       109  9156.15419     0.40552    63.92497    64.89243     6.77423
       110  9163.47911     0.40584    63.07151    65.12661     6.85377
       111  9170.80990     0.40616    63.11021    65.17771     6.86003
       112  9178.14655     0.40649    63.11506    65.04987     6.87421
       113  9185.48906     0.40681    63.18980    65.01167     6.88682
       114  9192.83745     0.40714    63.70070    65.05198     6.86211
       115  9200.19172     0.40746    64.68991    65.05737     6.79551
       116  9207.55188     0.40779    64.65976    65.15479     6.81268
       117  9214.91792     0.40812    63.67725    65.37215     6.91118
       118  9222.28985     0.40844    64.53884    64.94976     6.84965
       119  9229.66769     0.40877    63.81020    64.27181     6.92715
       120  9237.05142     0.40910    61.65049    64.00879     7.13651
       121  9244.44106     0.40942    61.89945    64.11215     7.12371
       122  9251.83661     0.40975    62.64440    64.47392     7.06077
       123  9259.23808     0.41008    62.41059    64.84809     7.08468
       124  9266.64547     0.41041    62.75895    65.36448     7.05391
       125  9274.05879     0.41073    64.21376    65.93129     6.92678
       126  9281.47804     0.41106    64.25343    66.49856     6.92760
       127  9288.90322     0.41139    66.26753    66.80400     6.76140
       128  9296.33434     0.41172    65.95827    66.81329     6.79124
       129  9303.77141     0.41205    66.04211    66.49397     6.78971
       130  9311.21443     0.41238    64.35909    66.08638     6.94284
       131  9318.66340     0.41271    64.50433    65.65176     6.94552
       132  9326.11833     0.41304    63.07914    65.52947     7.08653
       133  9333.57922     0.41337    63.44815    65.90410     7.06471
       134  9341.04609     0.41370    64.49155    66.42928     6.98049
       135  9348.51892     0.41403    65.66178    66.86113     6.88399
       136  9355.99774     0.41436    65.98306    67.20905     6.85997
       137  9363.48254     0.41469    66.47518    67.59711     6.82389
       138  9370.97332     0.41503    66.51877    67.92631     6.82773
       139  9378.47010     0.41536    66.57638    68.11157     6.82965
       140  9385.97288     0.41569    66.52390    68.49121     6.83844
       141  9393.48166     0.41602    67.45741    68.61299     6.76264
       142  9400.99644     0.41635    67.81555    68.23216     6.73354
       143  9408.51724     0.41669    66.30380    67.64892     6.85763
       144  9416.04405     0.41702    65.61730    67.19561     6.91399
       145  9423.57689     0.41735    64.67725    66.89640     6.99234
       146  9431.11575     0.41769    65.46012    67.06916     6.92269
       147  9438.66064     0.41802    65.31929    67.44720     6.93441
       148  9446.21157     0.41836    65.86890    67.90402     6.88871
       149  9453.76854     0.41869    65.84185    68.16511     6.89594
       150  9461.33155     0.41903    66.89736    68.19962     6.81627
       151  9468.90062     0.41936    66.92834    68.15783     6.82464
       152  9476.47574     0.41970    66.72774    67.80040     6.85366
       153  9484.05692     0.42003    66.22918    67.28695     6.90743
       154  9491.64417     0.42037    64.86286    67.28601     7.03613
       155  9499.23748     0.42070    65.15865    67.71235     7.02228
       156  9506.83687     0.42104    66.08147    67.95939     6.95357
       157  9514.44234     0.42138    66.75479    68.68063     6.90629
       158  9522.05389     0.42171    66.78643    69.82992     6.91200
       159  9529.67154     0.42205    69.51343    70.93542     6.69763
       160  9537.29527     0.42239    69.93442    71.05022     6.67213
       161  9544.92511     0.42273    70.47759    70.31218     6.63898
       162  9552.56105     0.42306    67.34062    70.10391     6.90359
       163  9560.20310     0.42340    68.25506    70.46332     6.84151
       164  9567.85126     0.42374    68.94933    69.99487     6.79596
       165  9575.50554     0.42408    67.73972    68.44713     6.90255
       166  9583.16595     0.42442    65.38873    67.17183     7.10700
       167  9590.83248     0.42476    64.97602    66.66375     7.14692
       168  9598.50515     0.42510    65.43313    66.18333     7.11431
       169  9606.18395     0.42544    64.81706    65.25279     7.18302
       170  9613.86890     0.42578    63.10230    64.50845     7.36238
       171  9621.55999     0.42612    63.10576    64.63374     7.38983
       172  9629.25724     0.42646    63.16003    65.85365     7.40959
       173  9636.96065     0.42680    66.81451    67.96157     7.09647
       174  9644.67022     0.42714    69.50070    69.26021     6.88474
       175  9652.38595     0.42748    70.78408    69.69093     6.79530
       176  9660.10786     0.42782    69.78217    69.68786     6.88929
       177  9667.83595     0.42817    69.42215    69.50801     6.93061
       178  9675.57022     0.42851    68.23646    68.81844     7.03810
       179  9683.31067     0.42885    67.03363    67.66225     7.14627
       180  9691.05732     0.42920    65.99339    66.50411     7.24122
       181  9698.81017     0.42954    64.09353    65.36910     7.41728
       182  9706.56921     0.42988    63.85729    65.07220     7.44510
       183  9714.33447     0.43023    64.51491    65.74545     7.39338
       184  9722.10594     0.43057    65.57983    66.58956     7.30535
       185  9729.88362     0.43091    66.74785    66.79176     7.20951
       186  9737.66753     0.43126    65.78112    66.65981     7.30418
       187  9745.45766     0.43160    66.07684    66.69549     7.28599
       188  9753.25403     0.43195    65.23670    68.02743     7.37044
       189  9761.05663     0.43229    67.59767    70.81559     7.17183
       190  9768.86548     0.43264    71.97781    71.81099     6.82541
       191  9776.68057     0.43299    71.40761    70.11459     6.88355
       192  9784.50191     0.43333    67.77598    68.47514     7.19864
       193  9792.32952     0.43368    65.72187    68.17597     7.39605
       194  9800.16338     0.43403    66.93874    69.31019     7.30040
       195  9808.00351     0.43437    70.38926    71.30826     7.01727
       196  9815.84991     0.43472    73.41982    72.55611     6.78619
       197  9823.70259     0.43507    74.03562    72.99793     6.74643
       198  9831.56155     0.43542    72.66948    72.44896     6.85689
       199  9839.42680     0.43576    71.42137    71.95024     6.96016
       200  9847.29835     0.43611    71.06127    72.00472     6.99181
       201  9855.17618     0.43646    71.05058    72.20695     6.99425
       202  9863.06033     0.43681    72.05636    71.93009     6.91818
       203  9870.95077     0.43716    71.37785    71.71421     6.98151
       204  9878.84753     0.43751    71.34403    72.78172     6.99673
       205  9886.75061     0.43786    72.78629    74.15706     6.89558
       206  9894.66001     0.43821    74.12840    74.00803     6.80373
       207  9902.57574     0.43856    73.07385    72.85766     6.89287
       208  9910.49780     0.43891    72.22595    72.29137     6.96334
       209  9918.42620     0.43926    71.44669    71.74826     7.02722
       210  9926.36094     0.43961    71.11161    70.39933     7.05747
       211  9934.30203     0.43996    68.70700    68.69753     7.26389
       212  9942.24947     0.44032    67.16187    67.72672     7.40674
       213  9950.20327     0.44067    67.46719    67.97227     7.39054
       214  9958.16343     0.44102    68.00367    68.76135     7.35789
       215  9966.12996     0.44137    69.78359    68.63368     7.21877
       216  9974.10287     0.44173    68.69597    68.09426     7.32602
       217  9982.08215     0.44208    67.64724    67.59586     7.42985
       218  9990.06782     0.44243    67.13401    67.24598     7.48608
       219  9998.05987     0.44279    67.24061    67.08781     7.48541
       220 10006.05832     0.44314    67.62683    67.23120     7.46011
       221 10014.06316     0.44349    68.45172    67.77810     7.39560
       222 10022.07441     0.44385    69.25324    68.88319     7.33334
       223 10030.09207     0.44420    70.45040    70.75988     7.23864
       224 10038.11615     0.44456    72.29859    72.71902     7.09477
       225 10046.14664     0.44491    74.52454    74.72363     6.92949
       226 10054.18356     0.44527    76.48667    75.17572     6.79326
       227 10062.22691     0.44563    75.18791    74.38775     6.90372
       228 10070.27669     0.44598    73.13532    74.39943     7.07909
       229 10078.33291     0.44634    74.06309    75.17224     7.02270
       230 10086.39557     0.44670    75.18938    75.74788     6.95049
       231 10094.46469     0.44705    75.18691    74.93973     6.96192
       232 10102.54026     0.44741    73.64753    72.74229     7.09062
       233 10110.62229     0.44777    71.88170    71.00898     7.24047
       234 10118.71079     0.44813    69.73891    70.83312     7.43096
       235 10126.80576     0.44849    70.94585    71.69103     7.33532
       236 10134.90721     0.44884    73.33142    72.54486     7.14602
       237 10143.01513     0.44920    73.16085    73.30284     7.16869
       238 10151.12954     0.44956    74.24933    74.44371     7.09015
       239 10159.25045     0.44992    75.82435    74.89598     6.97465
       240 10167.37785     0.45028    75.26360    73.87166     7.02347
       241 10175.51175     0.45064    73.57130    71.35376     7.16420
       242 10183.65216     0.45100    69.36402    68.48697     7.53055
       243 10191.79908     0.45136    66.46577    66.48703     7.80727
       244 10199.95252     0.45172    65.83519    65.83683     7.87516
       245 10208.11248     0.45208    67.01003    67.30697     7.76955
       246 10216.27897     0.45245    70.82969    69.11596     7.43481
       247 10224.45200     0.45281    72.32700    69.74011     7.32054
       248 10232.63156     0.45317    72.07161    70.56107     7.35276
       249 10240.81766     0.45353    71.39579    71.27066     7.41657
       250 10249.01032     0.45390    71.65543    71.04029     7.39972
       251 10257.20952     0.45426    70.61263    69.53311     7.49645
       252 10265.41529     0.45462    68.38249    68.17250     7.70583
       253 10273.62762     0.45499    67.50624    67.37656     7.79956
       254 10281.84653     0.45535    67.87252    66.57803     7.77985
       255 10290.07200     0.45571    67.24129    66.07688     7.85477
       256 10298.30406     0.45608    67.75634    67.13107     7.81947
       257 10306.54270     0.45644    70.35657    68.68726     7.59171
       258 10314.78794     0.45681    70.99895    69.26917     7.54219
       259 10323.03977     0.45717    71.56367    70.01857     7.49864
       260 10331.29820     0.45754    72.12109    71.20283     7.45601
       261 10339.56324     0.45790    72.33552    72.35398     7.44404
       262 10347.83489     0.45827    72.92113    72.60368     7.40122
       263 10356.11316     0.45864    71.44459    71.45892     7.53488
       264 10364.39805     0.45900    70.55226    69.88970     7.62295
       265 10372.68957     0.45937    69.00415    69.30956     7.77166
       266 10380.98772     0.45974    69.61239    69.77551     7.72295
       267 10389.29251     0.46011    70.76336    70.39710     7.62737
       268 10397.60394     0.46047    70.86779    70.70368     7.62548
       269 10405.92203     0.46084    71.15369    70.13459     7.60627
       270 10414.24676     0.46121    70.42012    71.22204     7.67453
       271 10422.57816     0.46158    71.99100    73.22479     7.53821
       272 10430.91622     0.46195    74.47929    73.11197     7.33145
       273 10439.26096     0.46232    73.62896    71.84943     7.40571
       274 10447.61237     0.46269    71.42265    71.67663     7.60413
       275 10455.97046     0.46306    71.55338    71.45500     7.60748
       276 10464.33523     0.46343    72.46604    70.28129     7.54453
       277 10472.70670     0.46380    70.25200    68.71824     7.75600
       278 10481.08487     0.46417    68.27679    67.60865     7.95425
       279 10489.46973     0.46454    69.52308    69.22785     7.84995
       280 10497.86131     0.46491    72.53849    71.09637     7.59051
       281 10506.25960     0.46528    72.95009    70.23386     7.56420
       282 10514.66461     0.46566    70.48636    68.25397     7.79018
       283 10523.07634     0.46603    68.93513    66.95280     7.93926
       284 10531.49480     0.46640    68.10913    66.55549     8.02229
       285 10539.91999     0.46677    68.45839    66.87536     7.99224
       286 10548.35193     0.46715    68.39372    66.60220     8.00050
       287 10556.79061     0.46752    68.12263    66.43132     8.02946
       288 10565.23604     0.46789    67.00533    66.79576     8.14274
       289 10573.68823     0.46827    67.64645    66.86565     8.08647
       290 10582.14718     0.46864    67.55201    66.64750     8.10465
       291 10590.61290     0.46902    67.65420    65.93031     8.10521
       292 10599.08539     0.46939    67.57739    64.45179     8.12190
       293 10607.56466     0.46977    65.94789    63.10540     8.29138
       294 10616.05071     0.47014    65.15226    62.78398     8.37685
       295 10624.54355     0.47052    66.56478    63.50863     8.23321
       296 10633.04319     0.47090    67.52967    64.41562     8.13686
       297 10641.54962     0.47127    68.78126    66.59536     8.01326
       298 10650.06286     0.47165    72.14010    69.75934     7.70220
       299 10658.58291     0.47203    73.77353    71.05331     7.56128
       300 10667.10978     0.47240    74.29034    71.93434     7.52232
       301 10675.64347     0.47278    75.93110    74.07117     7.39696
       302 10684.18398     0.47316    78.27385    76.61600     7.22240
       303 10692.73133     0.47354    79.59829    78.23411     7.13009
       304 10701.28551     0.47392    79.05106    76.91395     7.17752
       305 10709.84654     0.47430    75.84300    74.54883     7.43487
       306 10718.41442     0.47468    73.53290    73.22901     7.63125
       307 10726.98915     0.47506    73.80953    72.44690     7.61054
       308 10735.57074     0.47544    74.12637    72.88930     7.58890
       309 10744.15920     0.47582    75.33379    73.63278     7.49532
       310 10752.75453     0.47620    75.61317    73.55777     7.48199
       311 10761.35673     0.47658    75.91443    74.01142     7.46733
       312 10769.96581     0.47696    76.27555    74.24835     7.44655
       313 10778.58179     0.47734    76.33908    74.63884     7.44448
       314 10787.20465     0.47772    75.87811    72.50539     7.47687
       315 10795.83442     0.47810    72.99558    71.24272     7.71256
       316 10804.47108     0.47849    74.51445    73.63493     7.57378
       317 10813.11466     0.47887    78.10994    76.69736     7.27827
       318 10821.76515     0.47925    79.03552    76.94746     7.20737
       319 10830.42256     0.47963    76.46251    75.61530     7.41072
       320 10839.08690     0.48002    74.08711    73.73408     7.60836
       321 10847.75817     0.48040    72.80591    72.07137     7.71728
       322 10856.43638     0.48079    71.79448    71.13801     7.80167
       323 10865.12153     0.48117    70.79916    69.35247     7.88549
       324 10873.81362     0.48156    69.42317    67.82183     8.01152
       325 10882.51268     0.48194    70.40129    68.71513     7.92787
       326 10891.21869     0.48233    72.89781    71.34480     7.71706
       327 10899.93166     0.48271    75.38183    72.24993     7.52062
       328 10908.65161     0.48310    75.84663    72.76615     7.49544
       329 10917.37853     0.48348    76.63981    74.47736     7.43954
       330 10926.11243     0.48387    78.13838    75.42062     7.32399
       331 10934.85332     0.48426    77.35163    75.20245     7.38910
       332 10943.60120     0.48464    76.78079    75.15648     7.43958
       333 10952.35608     0.48503    76.05253    74.46652     7.50585
       334 10961.11797     0.48542    74.30799    72.43352     7.65854
       335 10969.88686     0.48581    72.72314    71.26556     7.79962
       336 10978.66277     0.48620    73.82021    71.28246     7.70327
       337 10987.44570     0.48659    74.21684    71.61225     7.66927
       338 10996.23566     0.48698    74.47574    72.93061     7.64953
       339 11005.03265     0.48736    74.37831    73.85730     7.66111
       340 11013.83667     0.48775    74.78567    73.90475     7.63075
       341 11022.64774     0.48814    74.66993    74.11615     7.64912
       342 11031.46586     0.48853    75.75593    74.97322     7.57026
       343 11040.29103     0.48893    75.10719    73.55554     7.63717
       344 11049.12327     0.48932    73.74601    72.36639     7.76613
       345 11057.96257     0.48971    73.32812    71.56682     7.81392
       346 11066.80894     0.49010    73.54040    71.85930     7.80403
       347 11075.66238     0.49049    74.72925    73.14905     7.70754
       348 11084.52291     0.49088    74.93105    73.07232     7.69665
       349 11093.39053     0.49128    74.37938    72.82983     7.75150
       350 11102.26524     0.49167    73.82112    72.81115     7.80731
       351 11111.14706     0.49206    73.32327    72.27245     7.85724
       352 11120.03597     0.49246    71.86933    70.98354     7.99395
       353 11128.93200     0.49285    71.17847    70.41898     8.06221
       354 11137.83515     0.49324    71.25087    69.40123     8.05865
       355 11146.74542     0.49364    70.64491    68.66455     8.11984
       356 11155.66281     0.49403    71.94149    69.80806     8.00387
       357 11164.58734     0.49443    74.40912    71.50807     7.78708
       358 11173.51901     0.49482    73.26352    70.25323     7.88879
       359 11182.45783     0.49522    69.65686    67.59658     8.22290
       360 11191.40379     0.49562    69.04168    66.87053     8.28144
       361 11200.35692     0.49601    71.14926    69.26189     8.07982
       362 11209.31720     0.49641    78.68824    76.57104     7.43209
       363 11218.28466     0.49681    82.60345    81.15133     7.13494
       364 11227.25928     0.49720    80.65709    79.81718     7.28170
       365 11236.24109     0.49760    77.19989    76.87272     7.55986
       366 11245.23008     0.49800    74.35515    73.74210     7.80704
       367 11254.22627     0.49840    72.93365    72.59012     7.93947
       368 11263.22965     0.49879    73.87600    72.89014     7.86094
       369 11272.24023     0.49919    74.63385    73.44465     7.79913
       370 11281.25803     0.49959    73.78040    72.60360     7.87729
       371 11290.28303     0.49999    72.98375    72.41286     7.95103
       372 11299.31526     0.50039    73.18359    71.89877     7.93603
       373 11308.35471     0.50079    71.40116    70.77088     8.10259
       374 11317.40139     0.50119    71.59763    71.14483     8.08943
       375 11326.45532     0.50159    73.77780    72.44737     7.89986
       376 11335.51648     0.50200    76.86314    74.85734     7.64571
       377 11344.58489     0.50240    78.24408    76.26320     7.54216
       378 11353.66056     0.50280    76.27403    74.36650     7.71010
       379 11362.74349     0.50320    73.11456    72.54461     7.98858
       380 11371.83368     0.50360    73.10354    73.22291     7.99261
       381 11380.93115     0.50401    75.14470    74.77264     7.81761
       382 11390.03590     0.50441    77.38757    77.84878     7.63661
       383 11399.14792     0.50481    79.32270    78.50862     7.48962
       384 11408.26724     0.50522    76.68654    75.61174     7.71469
       385 11417.39386     0.50562    74.18154    74.17103     7.93978
       386 11426.52777     0.50602    75.72660    76.23310     7.81220
       387 11435.66899     0.50643    78.55887    78.25667     7.58502
       388 11444.81753     0.50683    80.89380    79.85616     7.41199
       389 11453.97338     0.50724    81.61492    80.37485     7.36853
       390 11463.13656     0.50764    78.38394    77.09802     7.63513
       391 11472.30707     0.50805    76.46682    75.64256     7.80425
       392 11481.48492     0.50846    77.63701    76.21701     7.71071
       393 11490.67010     0.50886    78.28575    77.20643     7.65852
       394 11499.86264     0.50927    79.34901    78.51063     7.57060
       395 11509.06253     0.50968    80.45030    79.16480     7.48276
       396 11518.26978     0.51009    79.48526    79.65043     7.56354
       397 11527.48440     0.51049    79.66027    79.46866     7.55799
       398 11536.70638     0.51090    77.18443    76.10570     7.76980
       399 11545.93575     0.51131    73.64641    74.06424     8.08620
       400 11555.17250     0.51172    73.38789    73.36002     8.11295
       401 11564.41664     0.51213    72.17267    72.46515     8.22817
       402 11573.66817     0.51254    71.44904    71.13034     8.30077
       403 11582.92710     0.51295    71.61380    71.25857     8.29220
       404 11592.19345     0.51336    72.85533    71.96722     8.18190
       405 11601.46720     0.51377    71.88202    71.83193     8.27594
       406 11610.74837     0.51418    71.67103    71.68854     8.29800
       407 11620.03697     0.51459    70.28753    70.22862     8.44008
       408 11629.33300     0.51500    69.20492    68.02277     8.56126
       409 11638.63647     0.51541    68.69288    67.65070     8.62838
       410 11647.94738     0.51583    72.13671    70.71766     8.30013
       411 11657.26574     0.51624    74.33369    73.59606     8.10605
       412 11666.59155     0.51665    74.32399    71.99869     8.11249
       413 11675.92482     0.51707    72.91007    71.15048     8.24224
       414 11685.26556     0.51748    73.21791    72.17360     8.20630
       415 11694.61377     0.51789    74.56867    72.91482     8.07428
       416 11703.96946     0.51831    73.61455    72.20546     8.15638
       417 11713.33264     0.51872    72.43215    71.11919     8.26531
       418 11722.70331     0.51914    70.46188    70.47727     8.45608
       419 11732.08147     0.51955    71.96949    73.21092     8.31336
       420 11741.46713     0.51997    74.04941    76.05569     8.12693
       421 11750.86031     0.52038    75.47627    76.31550     8.00728
       422 11760.26100     0.52080    77.31549    76.98826     7.85481
       423 11769.66920     0.52122    74.55961    72.58098     8.10009
       424 11779.08494     0.52163    67.71984    67.95141     8.76988
       425 11788.50821     0.52205    64.84016    66.72193     9.08606
       426 11797.93901     0.52247    66.78481    67.85275     8.87189
       427 11807.37737     0.52288    68.47307    68.61179     8.69677
       428 11816.82327     0.52330    69.27043    69.20521     8.62235
       429 11826.27673     0.52372    70.09899    69.47853     8.54931
       430 11835.73775     0.52414    68.44533    68.41900     8.73119
       431 11845.20634     0.52456    68.38883    67.34572     8.74986
       432 11854.68250     0.52498    68.01876    66.99907     8.79790
       433 11864.16625     0.52540    69.68637    68.76387     8.63213
       434 11873.65758     0.52582    70.95238    71.11333     8.51257
       435 11883.15651     0.52624    70.56114    70.69849     8.55980
       436 11892.66303     0.52666    69.57693    69.90417     8.66737
       437 11902.17716     0.52708    72.41379    73.51056     8.39312
       438 11911.69891     0.52750    77.26159    77.61343     7.95913
       439 11921.22826     0.52792    78.09790    79.09130     7.89295
       440 11930.76525     0.52835    77.75977    79.27548     7.92610
       441 11940.30986     0.52877    77.52657    78.65581     7.95101
       442 11949.86211     0.52919    75.76081    76.41797     8.11283
       443 11959.42200     0.52962    72.70012    73.69890     8.40523
       444 11968.98953     0.53004    70.76631    71.21867     8.60454
       445 11978.56473     0.53046    69.05630    70.50497     8.78698
       446 11988.14758     0.53089    68.37463    70.35660     8.86391
       447 11997.73810     0.53131    68.44918    69.50646     8.86186
       448 12007.33629     0.53174    67.53582    68.88842     8.96904
       449 12016.94216     0.53216    67.23203    68.34304     9.01487
       450 12026.55571     0.53259    68.93124    68.90272     8.84511
       451 12036.17695     0.53301    70.51028    71.18623     8.69111
       452 12045.80590     0.53344    72.97202    73.12274     8.45566
       453 12055.44254     0.53387    72.39940    72.93089     8.51823
       454 12065.08689     0.53429    71.96341    72.64931     8.56952
       455 12074.73896     0.53472    73.60648    73.71185     8.42085
       456 12084.39875     0.53515    74.42871    73.62508     8.35458
       457 12094.06627     0.53558    71.76955    71.78572     8.62181
       458 12103.74153     0.53600    68.94468    68.65572     8.92332
       459 12113.42452     0.53643    66.29135    67.30260     9.22451
       460 12123.11526     0.53686    65.68062    67.14385     9.30221
       461 12132.81375     0.53729    65.67530    67.39090     9.30926
       462 12142.52000     0.53772    67.50197    68.45516     9.11018
       463 12152.23402     0.53815    67.31803    67.73982     9.14072
       464 12161.95581     0.53858    67.07240    67.46537     9.18288
       465 12171.68537     0.53901    67.62569    67.45585     9.13541
       466 12181.42272     0.53944    69.50360    69.66680     8.94014
       467 12191.16786     0.53988    72.77388    74.73243     8.60962
       468 12200.92079     0.54031    77.38302    79.21272     8.17853
       469 12210.68153     0.54074    78.29762    79.01191     8.09522
       470 12220.45007     0.54117    74.46188    74.73557     8.43613
       471 12230.22643     0.54160    71.07066    72.36407     8.75918
       472 12240.01061     0.54204    70.48205    70.90093     8.81310
       473 12249.80262     0.54247    70.80654    72.24033     8.77896
       474 12259.60247     0.54290    72.02832    73.14495     8.65969
       475 12269.41015     0.54334    71.50750    72.38115     8.71558
       476 12279.22568     0.54377    70.51964    71.05125     8.81737
       477 12289.04906     0.54421    67.96680    68.96592     9.08936
       478 12298.88030     0.54464    66.87704    67.01194     9.21443
       479 12308.71940     0.54508    64.67745    65.00096     9.47543
       480 12318.56637     0.54552    65.88382    67.13655     9.34093
       481 12328.42123     0.54595    70.43566    71.23489     8.84725
       482 12338.28397     0.54639    71.84654    71.45408     8.70355
       483 12348.15459     0.54683    70.99806    71.85234     8.78695
       484 12358.03312     0.54726    71.19463    72.13855     8.76216
       485 12367.91954     0.54770    69.69815    70.77211     8.91195
       486 12377.81388     0.54814    68.84267    69.73577     8.99882
       487 12387.71613     0.54858    68.41707    69.13141     9.04387
       488 12397.62630     0.54902    66.44276    66.90620     9.26486
       489 12407.54440     0.54945    64.81580    66.23099     9.45532
       490 12417.47044     0.54989    65.99419    66.87371     9.31608
       491 12427.40441     0.55033    66.98344    68.02245     9.19949
       492 12437.34634     0.55077    70.08109    70.99252     8.85957
       493 12447.29622     0.55121    73.09930    72.73541     8.55255
       494 12457.25405     0.55165    72.66833    72.76393     8.59389
       495 12467.21986     0.55210    73.55706    74.86328     8.51003
       496 12477.19363     0.55254    75.57155    75.57529     8.32329
       497 12487.17539     0.55298    72.81944    71.76008     8.58434
       498 12497.16513     0.55342    67.82583    68.44343     9.10082
       499 12507.16286     0.55386    66.90466    67.72790     9.20251
       500 12517.16859     0.55431    66.22707    68.10097     9.28219
       501 12527.18232     0.55475    68.38310    70.14042     9.05033
       502 12537.20407     0.55519    72.03817    72.79587     8.68097
       503 12547.23383     0.55564    71.58959    72.55694     8.73725
       504 12557.27162     0.55608    69.37726    69.98255     8.97732
       505 12567.31744     0.55653    67.26104    68.58729     9.21819
       506 12577.37129     0.55697    67.34886    68.52582     9.21273
       507 12587.43319     0.55742    67.05123    67.72347     9.24661
       508 12597.50314     0.55786    67.05492    67.84577     9.24600
       509 12607.58114     0.55831    69.06032    70.90541     9.02595
       510 12617.66720     0.55876    72.17549    74.22115     8.70565
       511 12627.76134     0.55920    73.33101    75.05512     8.59482
       512 12637.86355     0.55965    73.33169    74.21647     8.59753
       513 12647.97384     0.56010    74.49492    75.63455     8.48870
       514 12658.09222     0.56055    74.37819    75.05668     8.50496
       515 12668.21869     0.56099    70.82110    71.21868     8.86720
       516 12678.35326     0.56144    68.40176    70.48248     9.13905
       517 12688.49595     0.56189    70.44518    73.18501     8.93472
       518 12698.64674     0.56234    71.29374    72.30358     8.85902
       519 12708.80566     0.56279    68.24372    68.94562     9.19596
       520 12718.97271     0.56324    66.08001    66.73031     9.45164
       521 12729.14788     0.56369    66.43367    67.15772     9.41879
       522 12739.33120     0.56414    68.44977    68.79835     9.19850
       523 12749.52267     0.56459    69.41409    69.57405     9.10042
       524 12759.72228     0.56505    69.13932    68.55127     9.13611
       525 12769.93006     0.56550    66.65237    67.87236     9.41894
       526 12780.14601     0.56595    66.59506    68.51194     9.42831
       527 12790.37012     0.56640    66.48734    67.81671     9.44519
       528 12800.60242     0.56686    66.00390    66.23028     9.50836
       529 12810.84290     0.56731    65.98964    66.56250     9.51789
       530 12821.09158     0.56776    65.94040    67.06868     9.53484
       531 12831.34845     0.56822    65.77316    66.61230     9.56890
       532 12841.61353     0.56867    63.55957    64.25636     9.85667
       533 12851.88682     0.56913    62.17016    63.47351    10.05815
       534 12862.16833     0.56958    63.13104    64.43543     9.96075
       535 12872.45806     0.57004    64.70117    64.60637     9.78957
       536 12882.75603     0.57049    64.13046    64.79068     9.88145
       537 12893.06223     0.57095    65.86854    67.96565     9.67853
       538 12903.37668     0.57141    69.00705    71.05302     9.31706
       539 12913.69939     0.57186    69.76109    69.66980     9.23174
       540 12924.03034     0.57232    67.97332    67.62379     9.42918
       541 12934.36957     0.57278    68.92684    69.63792     9.32067
       542 12944.71706     0.57324    71.88560    73.93912     9.00239
       543 12955.07284     0.57369    73.90139    74.62974     8.79824
       544 12965.43690     0.57415    73.61158    74.59362     8.82780
       545 12975.80925     0.57461    72.21613    72.13686     8.96879
       546 12986.18989     0.57507    67.43971    68.85377     9.48577
       547 12996.57885     0.57553    65.59372    67.42786     9.69925
       548 13006.97611     0.57599    65.00136    66.89593     9.77160
       549 13017.38169     0.57645    63.77737    64.35679     9.93045
       550 13027.79559     0.57691    64.63264    64.31213     9.83581
       551 13038.21783     0.57737    66.61243    68.50519     9.60873
       552 13048.64841     0.57784    72.42496    73.73200     8.97603
       553 13059.08732     0.57830    75.21150    76.09590     8.70005
       554 13069.53459     0.57876    75.69840    77.05633     8.65231
       555 13079.99022     0.57922    76.53773    77.25222     8.57062
       556 13090.45421     0.57969    76.95907    77.55115     8.52920
       557 13100.92658     0.58015    75.89088    77.03012     8.63014
       558 13111.40732     0.58061    73.20248    72.82290     8.89865
       559 13121.89644     0.58108    69.26862    68.71552     9.32176
       560 13132.39396     0.58154    68.69638    69.47569     9.39019
       561 13142.89988     0.58201    73.09629    74.87250     8.92184
       562 13153.41420     0.58247    76.47075    77.80654     8.59349
       563 13163.93693     0.58294    75.20858    74.51122     8.71636
       564 13174.46808     0.58341    71.17768    70.91629     9.13025
       565 13185.00765     0.58387    70.92298    71.15750     9.16401
       566 13195.55566     0.58434    73.59267    74.83271     8.89166
       567 13206.11210     0.58481    79.50153    80.85873     8.33377
       568 13216.67699     0.58528    82.96533    85.45319     8.03508
       569 13227.25033     0.58574    82.16183    84.20047     8.09825
       570 13237.83213     0.58621    78.58226    79.91753     8.40676
       571 13248.42240     0.58668    75.28006    77.44635     8.71543
       572 13259.02114     0.58715    74.22164    76.96891     8.82360
       573 13269.62835     0.58762    70.81017    72.43974     9.18337
       574 13280.24406     0.58809    68.31022    68.83577     9.47309
       575 13290.86825     0.58856    68.64493    68.72139     9.45116
       576 13301.50095     0.58903    69.34565    70.26381     9.38879
       577 13312.14215     0.58950    70.80700    71.34398     9.24247
       578 13322.79186     0.58997    67.79224    67.93346     9.59225
       579 13333.45010     0.59044    65.36653    65.73370     9.89211
       580 13344.11686     0.59092    66.54895    66.33232     9.75052
       581 13354.79215     0.59139    69.49027    70.32179     9.40721
       582 13365.47598     0.59186    74.80219    74.48682     8.84416
       583 13376.16836     0.59234    75.46632    75.08627     8.77093
       584 13386.86930     0.59281    75.11265    75.42840     8.79491
       585 13397.57879     0.59328    72.86929    72.92482     9.00931
       586 13408.29686     0.59376    68.34915    68.72185     9.49232
       587 13419.02349     0.59423    67.47929    69.32312     9.59859
       588 13429.75871     0.59471    71.14833    73.79719     9.20510
       589 13440.50252     0.59518    75.38309    76.13593     8.79007
       590 13451.25492     0.59566    74.96813    75.58165     8.84580
       591 13462.01593     0.59614    72.23119    72.19931     9.13929
       592 13472.78554     0.59661    69.98453    71.17030     9.39666
       593 13483.56377     0.59709    70.69141    73.15949     9.33195
       594 13494.35062     0.59757    72.71414    75.15866     9.12483
       595 13505.14610     0.59805    74.63728    76.82007     8.93447
       596 13515.95022     0.59852    73.87796    74.85352     9.01490
       597 13526.76298     0.59900    71.63418    72.06968     9.25109
       598 13537.58439     0.59948    71.59845    72.80015     9.25764
       599 13548.41445     0.59996    70.86429    72.09802     9.34236
       600 13559.25318     0.60044    67.80975    68.29774     9.69664
       601 13570.10059     0.60092    64.94539    65.52715    10.05789
       602 13580.95667     0.60140    65.94176    67.63255     9.94836
       603 13591.82143     0.60188    69.10417    69.62685     9.58594
       604 13602.69489     0.60236    70.34592    70.77562     9.45442
       605 13613.57705     0.60285    74.47827    74.81120     9.02325
       606 13624.46791     0.60333    79.72338    78.73854     8.53098
       607 13635.36748     0.60381    83.27059    84.49854     8.23335
       608 13646.27578     0.60429    83.52440    84.58648     8.22522
       609 13657.19280     0.60478    80.68020    80.23645     8.48112
       610 13668.11855     0.60526    78.83090    79.50895     8.65443
       611 13679.05305     0.60575    80.18470    80.15024     8.53114
       612 13689.99629     0.60623    78.24945    78.29113     8.70439
       613 13700.94829     0.60671    74.12209    73.80664     9.10351
       614 13711.90904     0.60720    68.90092    68.21903     9.66859
       615 13722.87857     0.60769    65.67123    66.68077    10.05529
       616 13733.85687     0.60817    65.71554    68.06560    10.05150
       617 13744.84396     0.60866    67.00979    68.73076     9.89653
       618 13755.83983     0.60914    67.53213    69.25465     9.83707
       619 13766.84451     0.60963    69.37497    70.05095     9.62331
       620 13777.85798     0.61012    70.17288    70.40016     9.53657
       621 13788.88027     0.61061    72.93755    74.11918     9.24365
       622 13799.91137     0.61110    78.60540    81.07297     8.69099
       623 13810.95130     0.61158    80.59217    82.52764     8.51703
       624 13822.00006     0.61207    79.28850    79.97269     8.64155
       625 13833.05766     0.61256    76.70214    77.69614     8.89313
       626 13844.12411     0.61305    77.00321    78.39713     8.87501
       627 13855.19941     0.61354    79.30518    80.75018     8.67021
       628 13866.28357     0.61403    82.17671    83.49215     8.42323
       629 13877.37659     0.61453    79.04270    79.87993     8.71203
       630 13888.47850     0.61502    72.90320    72.81384     9.32875
       631 13899.58928     0.61551    68.48862    69.80981     9.82862
       632 13910.70895     0.61600    72.12084    73.86043     9.41985
       633 13921.83752     0.61649    77.49946    78.97074     8.87004
       634 13932.97499     0.61699    81.64199    81.32031     8.48712
       635 13944.12137     0.61748    82.67384    82.35897     8.39774
       636 13955.27666     0.61797    82.37487    81.84823     8.42916
       637 13966.44089     0.61847    78.03854    76.97888     8.83244
       638 13977.61404     0.61896    73.45266    72.41479     9.30503
       639 13988.79613     0.61946    71.73818    72.25431     9.50773
       640 13999.98717     0.61995    71.90964    72.66793     9.50849
       641 14011.18716     0.62045    72.18710    72.14825     9.49407
       642 14022.39611     0.62095    74.32840    75.02057     9.27696
       643 14033.61402     0.62144    81.72279    81.61810     8.57295
       644 14044.84091     0.62194    86.75499    87.18443     8.15283
       645 14056.07679     0.62244    89.81965    90.80187     7.91843
       646 14067.32165     0.62293    94.85663    97.25719     7.56002
       647 14078.57551     0.62343    97.52703    97.39084     7.38552
       648 14089.83837     0.62393    87.94875    88.65271     8.07744
       649 14101.11024     0.62443    78.17522    79.72129     8.92687
       650 14112.39113     0.62493    73.07405    74.22775     9.44368
       651 14123.68104     0.62543    69.39421    69.76329     9.85470
       652 14134.97998     0.62593    68.82674    69.09000     9.92314
       653 14146.28797     0.62643    71.24985    71.62263     9.65036
       654 14157.60500     0.62693    75.56284    76.95165     9.19746
       655 14168.93108     0.62743    81.80865    83.70787     8.60995
       656 14180.26623     0.62793    84.61515    85.24482     8.37190
       657 14191.61044     0.62844    81.92901    81.38951     8.60813
       658 14202.96373     0.62894    79.73431    78.75272     8.81051
       659 14214.32610     0.62944    78.43989    78.65547     8.93420
       660 14225.69756     0.62995    77.43947    77.36443     9.03180
       661 14237.07812     0.63045    73.84957    73.94905     9.40059
       662 14248.46778     0.63095    71.70677    71.41618     9.64177
       663 14259.86655     0.63146    71.25831    71.97570     9.70304
       664 14271.27445     0.63196    70.29072    69.91665     9.82111
       665 14282.69147     0.63247    67.52358    67.04124    10.15223
       666 14294.11762     0.63297    65.86151    65.82117    10.35712
       667 14305.55291     0.63348    64.87040    65.07385    10.48357
       668 14316.99736     0.63399    64.78980    64.96967    10.49724
       669 14328.45095     0.63449    66.99084    67.36810    10.22034
       670 14339.91372     0.63500    71.14691    71.38849     9.73214
       671 14351.38565     0.63551    74.18433    73.89382     9.40708
       672 14362.86675     0.63602    74.01778    73.41305     9.43378
       673 14374.35705     0.63653    72.55192    72.88319     9.60260
       674 14385.85653     0.63704    71.65871    72.05821     9.71196
       675 14397.36522     0.63755    73.73616    74.78439     9.49165
       676 14408.88311     0.63806    80.42061    81.47486     8.82950
       677 14420.41022     0.63857    82.90753    84.26849     8.60536
       678 14431.94655     0.63908    82.55854    82.80325     8.63433
       679 14443.49210     0.63959    78.89217    79.80164     8.96865
       680 14455.04690     0.64010    76.18032    77.79321     9.23599
       681 14466.61093     0.64061    73.67920    73.82578     9.50354
       682 14478.18422     0.64112    70.32455    70.49972     9.88472
       683 14489.76677     0.64164    70.40573    70.65540     9.87755
       684 14501.35858     0.64215    72.49542    73.26854     9.63914
       685 14512.95967     0.64266    78.65998    79.09008     9.00364
       686 14524.57004     0.64318    84.60156    85.08599     8.46953
       687 14536.18969     0.64369    84.83816    85.58836     8.45457
       688 14547.81865     0.64421    82.74435    82.15218     8.64366
       689 14559.45690     0.64472    78.03658    77.11773     9.09130
       690 14571.10447     0.64524    77.01003    77.47944     9.20714
       691 14582.76135     0.64575    83.00650    83.64384     8.65958
       692 14594.42756     0.64627    82.79108    82.58757     8.69294
       693 14606.10310     0.64679    77.10841    77.31907     9.24101
       694 14617.78798     0.64730    72.99725    73.95797     9.68174
       695 14629.48221     0.64782    71.98470    73.22889     9.80200
       696 14641.18580     0.64834    71.31720    71.46601     9.88112
       697 14652.89875     0.64886    71.21716    70.67449     9.89224
       698 14664.62107     0.64938    75.55314    75.63554     9.41878
       699 14676.35276     0.64990    80.90390    81.13629     8.89669
       700 14688.09385     0.65042    79.48154    78.00749     9.03818
       701 14699.84432     0.65094    72.69434    71.03416     9.74816
       702 14711.60420     0.65146    67.92664    67.93643    10.31949
       703 14723.37348     0.65198    66.41581    66.83916    10.52010
       704 14735.15218     0.65250    67.51742    67.28121    10.38728
       705 14746.94030     0.65302    71.61409    73.10727     9.90167
       706 14758.73785     0.65354    76.49234    77.03012     9.37828
       707 14770.54484     0.65407    76.41833    75.32132     9.38949
       708 14782.36128     0.65459    74.05200    74.12494     9.64278
       709 14794.18717     0.65511    77.10674    78.51582     9.32716
       710 14806.02252     0.65564    82.76643    83.46279     8.79145
       711 14817.86734     0.65616    80.44883    79.12598     9.01015
       712 14829.72163     0.65669    76.17858    75.34619     9.43721
       713 14841.58541     0.65721    78.59646    78.98603     9.19655
       714 14853.45868     0.65774    83.83657    84.71083     8.71315
       715 14865.34144     0.65826    85.58154    85.24239     8.56949
       716 14877.23372     0.65879    83.99468    82.06461     8.71711
       717 14889.13550     0.65932    78.82963    76.90648     9.20961
       718 14901.04681     0.65984    76.02181    75.44923     9.50432
       719 14912.96765     0.66037    78.24791    77.76447     9.28263
       720 14924.89802     0.66090    81.58902    80.96040     8.96338
       721 14936.83794     0.66143    80.81876    80.44687     9.03588
       722 14948.78741     0.66196    78.18864    76.84099     9.28989
       723 14960.74644     0.66249    75.69181    75.20259     9.54304
       724 14972.71504     0.66302    74.43754    73.74936     9.67653
       725 14984.69321     0.66355    72.68897    72.68167     9.87421
       726 14996.68097     0.66408    73.41027    71.89450     9.80318
       727 15008.67831     0.66461    72.62778    71.21121     9.90249
       728 15020.68525     0.66514    75.84464    74.31639     9.56329
       729 15032.70180     0.66567    79.04743    76.88802     9.24879
       730 15044.72796     0.66621    75.23206    74.07244     9.65202
       731 15056.76374     0.66674    72.39372    71.73701     9.97588
       732 15068.80916     0.66727    72.61723    73.03929     9.95679
       733 15080.86420     0.66781    73.34793    73.83217     9.87774
       734 15092.92889     0.66834    71.96988    70.60506    10.03814
       735 15105.00324     0.66887    70.27429    68.85112    10.24432
       736 15117.08724     0.66941    72.94665    72.38865     9.94164
       737 15129.18091     0.66994    78.69665    79.40036     9.34009
       738 15141.28425     0.67048    84.37658    84.93198     8.81316
       739 15153.39728     0.67102    86.12277    85.92317     8.66748
       740 15165.52000     0.67155    84.75808    85.08985     8.79326
       741 15177.65242     0.67209    83.25509    83.33504     8.93585
       742 15189.79454     0.67263    80.46857    80.88975     9.20839
       743 15201.94637     0.67317    81.29290    81.82801     9.14245
       744 15214.10793     0.67370    82.62607    82.50728     9.02988
       745 15226.27922     0.67424    83.07168    81.50917     8.99892
       746 15238.46024     0.67478    82.97482    81.31454     9.01500
       747 15250.65101     0.67532    82.87946    82.31323     9.02749
       748 15262.85153     0.67586    82.08764    80.51269     9.10106
       749 15275.06181     0.67640    78.34388    76.94934     9.46580
       750 15287.28186     0.67694    77.81516    76.45181     9.52220
       751 15299.51169     0.67749    79.19106    77.29436     9.38803
       752 15311.75129     0.67803    82.77221    81.51955     9.05186
       753 15324.00070     0.67857    88.61983    87.99864     8.54996
       754 15336.25990     0.67911    87.45908    86.68662     8.65624
       755 15348.52890     0.67966    83.58796    82.88398     9.00693
       756 15360.80773     0.68020    82.30847    82.09328     9.13458
       757 15373.09637     0.68074    81.86070    79.46712     9.18371
       758 15385.39485     0.68129    78.94011    75.62950     9.47583
       759 15397.70317     0.68183    74.96235    73.05755     9.90033
       760 15410.02133     0.68238    73.91610    73.10689    10.01855
       761 15422.34935     0.68292    74.45099    74.80325     9.95807
       762 15434.68723     0.68347    74.29357    73.92062     9.97197
       763 15447.03498     0.68402    73.02187    72.15001    10.11022
       764 15459.39260     0.68456    72.81826    71.15774    10.12846
       765 15471.76012     0.68511    71.78805    70.02579    10.24609
       766 15484.13753     0.68566    70.55468    68.90623    10.39314
       767 15496.52484     0.68621    71.59575    70.96032    10.26927
       768 15508.92206     0.68676    75.61957    75.44672     9.81763
       769 15521.32919     0.68731    80.35065    79.39533     9.33829
       770 15533.74626     0.68786    81.37066    79.56933     9.24693
       771 15546.17325     0.68841    78.95010    77.11303     9.48992
       772 15558.61019     0.68896    77.50453    77.10195     9.64096
       773 15571.05708     0.68951    80.39496    78.89008     9.34959
       774 15583.51393     0.69006    81.30925    80.68304     9.26059
       775 15595.98074     0.69061    80.86054    79.35057     9.30325
       776 15608.45752     0.69116    77.49755    75.39074     9.64203
       777 15620.94429     0.69172    77.18205    75.94018     9.67727
       778 15633.44104     0.69227    83.87215    84.33467     9.02420
       779 15645.94780     0.69282    88.00732    88.31799     8.66498
       780 15658.46455     0.69338    84.41725    83.62121     8.98393
       781 15670.99133     0.69393    80.99705    81.20509     9.31243
       782 15683.52812     0.69449    83.64157    84.30142     9.06994
       783 15696.07494     0.69504    88.19343    87.13141     8.67443
       784 15708.63180     0.69560    89.47273    87.97690     8.57144
       785 15721.19871     0.69615    88.12548    88.14126     8.68587
       786 15733.77567     0.69671    91.13565    91.21211     8.44056
       787 15746.36269     0.69727    94.69855    93.81331     8.16895
       788 15758.95978     0.69783    90.67869    88.37337     8.48542
       789 15771.56694     0.69838    83.36631    81.28338     9.12422
       790 15784.18420     0.69894    78.83353    78.51937     9.57370
       791 15796.81154     0.69950    78.24438    77.67163     9.64183
       792 15809.44899     0.70006    76.51028    75.44224     9.83347
       793 15822.09655     0.70062    73.94029    71.75938    10.12608
       794 15834.75423     0.70118    74.91164    72.03817    10.02248
       795 15847.42203     0.70174    76.13680    75.06504     9.89259
       796 15860.09997     0.70230    77.34660    75.76288     9.76651
       797 15872.78805     0.70287    76.65908    75.36660     9.84295
       798 15885.48628     0.70343    77.78358    76.68383     9.72835
       799 15898.19467     0.70399    78.40070    77.02105     9.67229
       800 15910.91323     0.70455    77.92119    76.27715     9.73148
       801 15923.64196     0.70512    78.95296    78.26843     9.63244
       802 15936.38087     0.70568    85.70225    85.40960     8.99231
       803 15949.12998     0.70625    93.46588    92.82527     8.35439
       804 15961.88928     0.70681    96.69067    93.88476     8.12118
       805 15974.65879     0.70738    93.88918    91.96727     8.34004
       806 15987.43852     0.70794    95.66571    94.86858     8.21474
       807 16000.22847     0.70851    97.79124    97.01659     8.06814
       808 16013.02865     0.70907    93.59008    92.93854     8.38924
       809 16025.83907     0.70964    86.83367    85.94235     8.95339
       810 16038.65975     0.71021    83.66185    82.65496     9.24426
       811 16051.49067     0.71078    85.33400    83.60537     9.08817
       812 16064.33187     0.71135    85.70227    83.75724     9.05045
       813 16077.18333     0.71191    86.08503    84.89795     9.01021
       814 16090.04508     0.71248    87.09745    85.77910     8.91552
       815 16102.91711     0.71305    89.32903    88.12539     8.72195
       816 16115.79945     0.71362    92.52800    90.89378     8.46243
       817 16128.69209     0.71420    89.38276    88.63150     8.72064
       818 16141.59504     0.71477    86.32589    85.73644     8.99218
       819 16154.50832     0.71534    86.01143    86.51488     9.03182
       820 16167.43192     0.71591    90.06802    90.64555     8.69253
       821 16180.36587     0.71648    92.58305    90.22369     8.49624
       822 16193.31016     0.71706    86.01701    84.81935     9.05502
       823 16206.26481     0.71763    80.68500    81.19564     9.56749
       824 16219.22982     0.71820    81.50671    83.21975     9.49481
       825 16232.20521     0.71878    86.57441    88.91441     9.02921
       826 16245.19097     0.71935    90.40519    91.44516     8.70774
       827 16258.18712     0.71993    91.24689    91.41076     8.64424
       828 16271.19367     0.72050    94.31984    93.80157     8.40538
       829 16284.21063     0.72108   100.22959    99.33924     7.97738
       830 16297.23800     0.72166   102.77008   102.61275     7.80857
       831 16310.27579     0.72223   101.33930   101.46681     7.90844
       832 16323.32401     0.72281    95.87250    95.31647     8.30248
       833 16336.38267     0.72339    91.46923    91.45162     8.64938
       834 16349.45177     0.72397    92.36504    92.37285     8.57724
       835 16362.53133     0.72455    88.53431    88.01746     8.89407
       836 16375.62136     0.72513    82.68416    80.74659     9.42670
       837 16388.72186     0.72571    80.16367    79.72026     9.67709
       838 16401.83283     0.72629    83.30184    83.06061     9.37267
       839 16414.95430     0.72687    83.78503    83.77526     9.33780
       840 16428.08626     0.72745    85.31883    84.95917     9.20794
       841 16441.22873     0.72803    87.80866    87.36187     8.99602
       842 16454.38172     0.72861    88.78803    87.39386     8.91933
       843 16467.54522     0.72920    88.26389    87.25552     8.96907
       844 16480.71926     0.72978    86.66543    85.36566     9.11259
       845 16493.90383     0.73036    82.73171    79.64177     9.48169
       846 16507.09896     0.73095    77.76467    75.63961     9.98988
       847 16520.30463     0.73153    78.93913    78.03257     9.86360
       848 16533.52088     0.73212    80.65669    79.24837     9.68872
       849 16546.74769     0.73270    77.24359    75.97609    10.05433
       850 16559.98509     0.73329    76.03566    74.01407    10.19809
       851 16573.23308     0.73388    80.36155    80.00629     9.74841
       852 16586.49167     0.73446    93.80475    93.10654     8.55342
       853 16599.76086     0.73505    99.77831    97.18957     8.11775
       854 16613.04067     0.73564    91.65310    89.27243     8.74786
       855 16626.33110     0.73623    81.27280    82.08590     9.70006
       856 16639.63217     0.73682    78.15503    78.40606    10.02505
       857 16652.94387     0.73741    75.79839    76.55331    10.28094
       858 16666.26623     0.73799    77.27593    79.42967    10.10937
       859 16679.59924     0.73859    82.18437    84.00551     9.59524
       860 16692.94292     0.73918    81.18135    81.06650     9.69852
       861 16706.29727     0.73977    75.03637    75.15066    10.36999
       862 16719.66231     0.74036    71.31041    71.67905    10.83090
       863 16733.03804     0.74095    71.02274    69.91435    10.87916
       864 16746.42447     0.74154    71.27394    70.31522    10.85625
       865 16759.82161     0.74214    75.26365    74.99171    10.37872
       866 16773.22947     0.74273    80.12927    80.35101     9.84791
       867 16786.64805     0.74332    80.17483    79.53516     9.84409
       868 16800.07737     0.74392    80.63788    80.15466     9.79649
       869 16813.51743     0.74451    90.08858    89.04899     8.91588
       870 16826.96825     0.74511    97.93246    97.67913     8.30087
       871 16840.42982     0.74571   104.05334   104.97512     7.88021
       872 16853.90217     0.74630   106.25877   106.57981     7.74313
       873 16867.38529     0.74690   104.75121   104.32959     7.84799
       874 16880.87920     0.74750   106.75606   106.55441     7.72656
       875 16894.38390     0.74809   109.82610   110.14094     7.54287
       876 16907.89941     0.74869   105.17883   105.58894     7.84058
       877 16921.42573     0.74929    96.09473    95.67458     8.48856
       878 16934.96287     0.74989    85.29746    84.33407     9.41149
       879 16948.51084     0.75049    77.63276    77.01223    10.20161
       880 16962.06965     0.75109    77.07627    77.04435    10.27103
       881 16975.63930     0.75169    78.99001    78.59784    10.06683
       882 16989.21981     0.75229    79.46121    78.40641    10.02136
       883 17002.81119     0.75289    80.34973    80.02481     9.93470
       884 17016.41344     0.75350    84.77390    83.66562     9.50362
       885 17030.02657     0.75410    84.74451    83.09239     9.52034
       886 17043.65059     0.75470    82.03121    81.97742     9.80072
       887 17057.28551     0.75531    82.62053    81.80767     9.74702
       888 17070.93134     0.75591    81.14078    80.65349     9.89738
       889 17084.58808     0.75652    83.51085    83.78609     9.65640
       890 17098.25575     0.75712    87.87835    88.86538     9.24582
       891 17111.93436     0.75773    89.40680    88.35065     9.11432
       892 17125.62391     0.75833    82.81434    83.20180     9.73659
       893 17139.32440     0.75894    79.64997    79.79728    10.07076
       894 17153.03586     0.75955    79.34581    80.09040    10.11538
       895 17166.75829     0.76015    84.17397    83.43476     9.63794
       896 17180.49170     0.76076    85.68476    85.62172     9.51123
       897 17194.23609     0.76137    86.40919    86.85276     9.46057
       898 17207.99148     0.76198    92.19887    91.43093     8.95845
       899 17221.75788     0.76259    94.50992    91.53220     8.77321
       900 17235.53528     0.76320    84.52598    83.01453     9.65857
       901 17249.32371     0.76381    74.73367    75.60940    10.71630
       902 17263.12317     0.76442    73.81629    73.96661    10.82942
       903 17276.93367     0.76503    75.68954    74.63108    10.61057
       904 17290.75521     0.76564    77.32649    75.60230    10.42812
       905 17304.58782     0.76626    76.42341    75.17757    10.53676
       906 17318.43149     0.76687    76.50623    74.98320    10.53230
       907 17332.28623     0.76748    79.22181    77.17955    10.23745
       908 17346.15206     0.76810    80.94157    78.72763    10.06666
       909 17360.02898     0.76871    81.62906    80.46929    10.00751
       910 17373.91701     0.76932    84.63065    84.72945     9.71404
       911 17387.81614     0.76994    87.03543    87.88479     9.48980
       912 17401.72639     0.77056    85.55479    85.76453     9.63141
       913 17415.64778     0.77117    84.62549    83.44436     9.71954
       914 17429.58029     0.77179    81.99360    81.46763     9.98047
       915 17443.52396     0.77241    80.45958    80.73890    10.13820
       916 17457.47878     0.77302    87.18981    88.19818     9.46767
       917 17471.44476     0.77364   100.97628   101.76933     8.33861
       918 17485.42192     0.77426   114.10660   111.18765     7.48868
       919 17499.41025     0.77488   113.58945   112.15571     7.52127
       920 17513.40978     0.77550   105.79071   109.25422     8.01209
       921 17527.42051     0.77612    98.95812   102.58236     8.49827
       922 17541.44245     0.77674    93.70975    94.95032     8.91301
       923 17555.47560     0.77736    96.81957    97.51729     8.66398
       924 17569.51998     0.77798   102.88119   102.28029     8.21712
       925 17583.57560     0.77861   101.48788    99.72912     8.31793
       926 17597.64246     0.77923    96.12503    96.14183     8.72426
       927 17611.72057     0.77985    94.65217    93.80837     8.84420
       928 17625.80995     0.78048    87.92403    87.82926     9.42596
       929 17639.91059     0.78110    79.34663    80.12814    10.28810
       930 17654.02252     0.78173    73.82955    74.32460    10.93385
       931 17668.14574     0.78235    70.53352    70.77421    11.36474
       932 17682.28026     0.78298    72.25531    72.57391    11.15028
       933 17696.42608     0.78360    79.05991    79.46196    10.35178
       934 17710.58322     0.78423    85.73460    84.83821     9.67343
       935 17724.75169     0.78486    88.51664    87.99121     9.42092
       936 17738.93149     0.78548    90.46152    92.12073     9.25350
       937 17753.12264     0.78611    94.45354    97.71273     8.92073
       938 17767.32513     0.78674   103.41953   105.43501     8.24778
       939 17781.53899     0.78737   106.66860   104.03616     8.03248
       940 17795.76423     0.78800    95.86896    96.62609     8.82432
       941 17810.00084     0.78863    91.31854    92.78718     9.20508
       942 17824.24884     0.78926    88.62945    89.24786     9.44259
       943 17838.50824     0.78989    84.47967    84.41516     9.83397
       944 17852.77904     0.79053    82.67122    83.10257    10.01331
       945 17867.06127     0.79116    86.03484    86.76722     9.67724
       946 17881.35492     0.79179    95.73803    94.14827     8.82794
       947 17895.66000     0.79242   106.68424   107.67054     8.03505
       948 17909.97653     0.79306   117.56389   118.98938     7.37897
       949 17924.30451     0.79369   111.86893   111.43914     7.71846
       950 17938.64395     0.79433    94.76856    96.26907     8.93683
       951 17952.99487     0.79496    82.74761    83.10156    10.05529
       952 17967.35726     0.79560    76.21226    76.77060    10.79266
       953 17981.73115     0.79623    77.78879    78.20098    10.61348
       954 17996.11653     0.79687    84.27934    84.36210     9.91297
       955 18010.51343     0.79751    94.80233    95.72910     8.94941
       956 18024.92184     0.79815   104.25955   105.62656     8.22683
       957 18039.34178     0.79878   100.53442   100.88195     8.48457
       958 18053.77325     0.79942    87.06363    87.81918     9.60155
       959 18068.21627     0.80006    78.34629    79.70915    10.49787
       960 18082.67084     0.80070    79.07311    79.08394    10.41530
       961 18097.13698     0.80134    84.41421    85.78362     9.85144
       962 18111.61469     0.80198    96.23905    97.46897     8.79575
       963 18126.10398     0.80263   102.79561   100.74890     8.29920
       964 18140.60486     0.80327    93.03242    92.55448     9.04776
       965 18155.11735     0.80391    82.60691    83.21131    10.01265
       966 18169.64144     0.80455    77.25954    78.34197    10.58494
       967 18184.17715     0.80520    79.86179    79.73375    10.27646
       968 18198.72449     0.80584    83.57505    83.69756     9.86759
       969 18213.28347     0.80649    88.26509    89.20853     9.39185
       970 18227.85410     0.80713    93.69517    93.75733     8.89136
       971 18242.43638     0.80778    94.95167    94.26122     8.75701
       972 18257.03033     0.80842    94.70040    94.51778     8.74354
       973 18271.63596     0.80907    94.52105    93.36076     8.72630
       974 18286.25327     0.80972    89.00308    88.72044     9.16050
       975 18300.88227     0.81036    84.11927    84.37994     9.59207
       976 18315.52297     0.81101    81.95236    82.90689     9.79767
       977 18330.17539     0.81166    83.55109    85.65137     9.63561
       978 18344.83953     0.81231    91.57822    92.18825     8.90461
       979 18359.51540     0.81296    98.30819    99.71152     8.36556
       980 18374.20302     0.81361   108.26503   108.98651     7.67446
       981 18388.90238     0.81426   110.07902   109.31158     7.54517
       982 18403.61350     0.81491    98.53133   100.41483     8.29417
       983 18418.33639     0.81556    91.53192    92.88413     8.81726
       984 18433.07106     0.81622    86.28760    88.45334     9.24905
       985 18447.81752     0.81687    85.39807    87.47720     9.30354
       986 18462.57577     0.81752    88.04404    87.37382     9.03527
       987 18477.34583     0.81818    84.16760    82.80470     9.36120
       988 18492.12771     0.81883    76.06758    77.00170    10.16937
       989 18506.92141     0.81949    74.83553    75.98104    10.27846
       990 18521.72695     0.82014    83.04538    83.58826     9.38150
       991 18536.54433     0.82080    94.36448    94.02375     8.37780
       992 18551.37357     0.82145    93.19356    93.53171     8.44423
       993 18566.21466     0.82211    84.42576    84.45742     9.17000
       994 18581.06764     0.82277    76.13665    76.12795     9.98518
       995 18595.93249     0.82343    71.82494    71.47128    10.45813
       996 18610.80924     0.82409    70.92164    69.68648    10.54006
       997 18625.69788     0.82474    72.91759    71.74981    10.26816
       998 18640.59844     0.82540    79.75855    80.78793     9.48855
       999 18655.51092     0.82606    92.09463    92.60637     8.35582
      1000 18670.43533     0.82673    99.55171   100.57917     7.77817
      1001 18685.37168     0.82739   108.60355   110.17650     7.17921
      1002 18700.31998     0.82805   110.32825   110.33158     7.05788
      1003 18715.28023     0.82871   100.82545   101.38556     7.62030
      1004 18730.25246     0.82937    97.61079    98.51816     7.81941
      1005 18745.23666     0.83004   100.00085    98.82435     7.63661
      1006 18760.23285     0.83070    93.02843    92.85297     8.11401
      1007 18775.24103     0.83137    86.11339    86.72708     8.65519
      1008 18790.26123     0.83203    86.69476    87.86166     8.58846
      1009 18805.29343     0.83270    92.97683    92.36832     8.06820
      1010 18820.33767     0.83336    92.55997    91.01539     8.08181
      1011 18835.39394     0.83403    85.53458    85.87841     8.63179
      1012 18850.46226     0.83470    83.81598    85.60509     8.76210
      1013 18865.54262     0.83536    86.56760    87.53027     8.50265
      1014 18880.63506     0.83603    83.14289    83.71230     8.78395
      1015 18895.73957     0.83670    76.85185    77.58547     9.37398
      1016 18910.85616     0.83737    75.49167    75.22415     9.49712
      1017 18925.98484     0.83804    77.59307    77.88612     9.25877
      1018 18941.12563     0.83871    84.24169    84.42407     8.61276
      1019 18956.27853     0.83938    89.87010    89.51020     8.12727
      1020 18971.44355     0.84005    91.23161    93.46232     8.00361
      1021 18986.62071     0.84072    94.62318    97.67589     7.73748
      1022 19001.81001     0.84140    94.36076    96.08230     7.74249
      1023 19017.01145     0.84207    91.03730    91.66423     7.97536
      1024 19032.22506     0.84274    88.92773    88.34597     8.12891
      1025 19047.45084     0.84342    85.37323    84.34509     8.40981
      1026 19062.68880     0.84409    80.30323    80.94694     8.85063
      1027 19077.93896     0.84477    81.02184    81.87933     8.77460
      1028 19093.20131     0.84544    82.63703    83.92933     8.61997
      1029 19108.47587     0.84612    84.37232    85.62855     8.45756
      1030 19123.76265     0.84680    88.45168    89.49582     8.10734
      1031 19139.06166     0.84747    95.02500    94.92691     7.60374
      1032 19154.37291     0.84815    97.15945    98.04663     7.44382
      1033 19169.69641     0.84883    94.46735    96.00997     7.61622
      1034 19185.03216     0.84951    90.43601    93.45695     7.90054
      1035 19200.38019     0.85019    93.34144    93.69667     7.68131
      1036 19215.74049     0.85087    89.97448    89.18426     7.92449
      1037 19231.11309     0.85155    83.81530    85.41546     8.41577
      1038 19246.49798     0.85223    88.94379    91.19004     7.98572
      1039 19261.89517     0.85291    98.50997    98.88932     7.29263
      1040 19277.30469     0.85359    99.27868    99.56251     7.22616
      1041 19292.72653     0.85428    96.10166    94.43065     7.41493
      1042 19308.16072     0.85496    89.63538    89.28762     7.85645
      1043 19323.60724     0.85564    88.29922    88.90783     7.93770
      1044 19339.06613     0.85633    90.72819    90.78334     7.73313
      1045 19354.53738     0.85701    93.38767    94.30275     7.52064
      1046 19370.02101     0.85770    97.65738    97.53822     7.21246
      1047 19385.51703     0.85838    96.90169    96.53579     7.23994
      1048 19401.02544     0.85907    95.91870    97.48168     7.28312
      1049 19416.54626     0.85976   104.04990   104.57312     6.76330
      1050 19432.07950     0.86045   105.65598   105.72790     6.65456
      1051 19447.62516     0.86113    97.73272    97.78526     7.10743
      1052 19463.18326     0.86182    84.90976    86.24609     8.00877
      1053 19478.75381     0.86251    76.28023    76.85801     8.75492
      1054 19494.33681     0.86320    70.92349    70.64618     9.28772
      1055 19509.93228     0.86389    67.50213    67.96934     9.65556
      1056 19525.54023     0.86458    69.43164    69.15481     9.40417
      1057 19541.16066     0.86528    73.03896    71.63850     8.98183
      1058 19556.79359     0.86597    72.46870    71.52242     9.00580
      1059 19572.43902     0.86666    71.66365    70.96174     9.05410
      1060 19588.09698     0.86735    74.79423    75.36367     8.70119
      1061 19603.76745     0.86805    85.93278    86.76816     7.70166
      1062 19619.45047     0.86874    98.43312    97.39273     6.81979
      1063 19635.14603     0.86944    98.09643    96.19472     6.81618
      1064 19650.85414     0.87013    87.15096    87.08271     7.52751
      1065 19666.57483     0.87083    83.21768    83.53270     7.80378
      1066 19682.30809     0.87152    90.52084    90.81958     7.23054
      1067 19698.05393     0.87222   104.91900   106.26633     6.32980
      1068 19713.81238     0.87292   116.51120   117.49770     5.74424
      1069 19729.58343     0.87362   110.04543   109.86403     6.01928
      1070 19745.36709     0.87432    94.20176    94.80780     6.87322
      1071 19761.16339     0.87502    87.96422    88.10499     7.26703
      1072 19776.97232     0.87572    89.48586    89.01619     7.13584
      1073 19792.79390     0.87642    91.95002    91.02549     6.94609
      1074 19808.62813     0.87712    92.14104    91.46230     6.90873
      1075 19824.47503     0.87782    88.62108    89.63313     7.11829
      1076 19840.33461     0.87852    86.77206    87.56525     7.21902
      1077 19856.20688     0.87922    83.90277    84.25675     7.39924
      1078 19872.09185     0.87993    81.24227    80.47889     7.57395
      1079 19887.98952     0.88063    78.16556    77.27678     7.79703
      1080 19903.89991     0.88134    76.28454    75.87181     7.93052
      1081 19919.82303     0.88204    77.30069    77.16491     7.81335
      1082 19935.75889     0.88275    80.40355    79.97340     7.52852
      1083 19951.70750     0.88345    85.06716    85.42243     7.14755
      1084 19967.66886     0.88416    92.39356    94.10333     6.63069
      1085 19983.64300     0.88487    98.15989    99.84727     6.26524
      1086 19999.62991     0.88557    95.88250    96.39284     6.36900
      1087 20015.62962     0.88628    89.08448    90.05616     6.76081
      1088 20031.64212     0.88699    91.98284    92.27043     6.54499
      1089 20047.66743     0.88770   102.59726   103.08653     5.92051
      1090 20063.70557     0.88841   113.49662   113.94142     5.39055
      1091 20079.75653     0.88912   124.83608   128.12991     4.92997
      1092 20095.82034     0.88983   144.43514   141.20865     4.30189
      1093 20111.89699     0.89054   137.87493   131.10891     4.46871
      1094 20127.98651     0.89126   103.54176   106.08025     5.74957
      1095 20144.08890     0.89197    82.62764    86.76525     6.96216
      1096 20160.20417     0.89268    73.52215    76.14194     7.65112
      1097 20176.33234     0.89340    70.23918    70.56285     7.91674
      1098 20192.47340     0.89411    68.47912    67.89810     8.05541
      1099 20208.62738     0.89483    69.21975    68.69480     7.95320
      1100 20224.79428     0.89554    76.00330    76.93665     7.32180
      1101 20240.97412     0.89626    93.88876    93.76116     6.07867
      1102 20257.16690     0.89698   108.13166   105.92545     5.34396
      1103 20273.37263     0.89769   106.63820   106.01260     5.38596
      1104 20289.59133     0.89841   105.42678   107.46782     5.41663
      1105 20305.82300     0.89913   112.80790   113.60851     5.07928
      1106 20322.06766     0.89985   111.37981   108.96255     5.11665
      1107 20338.32531     0.90057    95.23832    95.69196     5.85189
      1108 20354.59597     0.90129    84.73585    86.85553     6.45461
      1109 20370.87965     0.90201    83.72576    84.73923     6.49978
      1110 20387.17635     0.90273    83.81674    84.19695     6.46768
      1111 20403.48610     0.90345    81.19880    79.95501     6.61576
      1112 20419.80888     0.90418    79.22968    76.95465     6.72266
      1113 20436.14473     0.90490    85.19785    83.65578     6.28690
      1114 20452.49365     0.90562   102.85526   103.30583     5.31350
      1115 20468.85564     0.90635   125.00702   125.02149     4.45081
      1116 20485.23073     0.90707   129.08202   130.04681     4.31104
      1117 20501.61891     0.90780   118.21645   119.83252     4.65357
      1118 20518.02021     0.90853   101.34056   102.48752     5.32289
      1119 20534.43462     0.90925    83.69275    85.98251     6.27155
      1120 20550.86217     0.90998    73.86124    75.57932     6.96041
      1121 20567.30286     0.91071    68.60903    69.68702     7.39176
      1122 20583.75670     0.91144    66.96956    67.14022     7.52969
      1123 20600.22371     0.91216    67.95138    67.13606     7.42507
      1124 20616.70389     0.91289    69.94423    67.96581     7.23221
      1125 20633.19725     0.91362    71.55292    70.45085     7.07988
      1126 20649.70381     0.91436    74.71328    75.39561     6.81243
      1127 20666.22357     0.91509    78.04249    78.42408     6.55233
      1128 20682.75655     0.91582    75.58152    77.02503     6.72090
      1129 20699.30275     0.91655    74.61508    75.30320     6.78376
      1130 20715.86220     0.91728    73.20063    74.68617     6.88380
      1131 20732.43489     0.91802    72.72662    73.49051     6.91126
      1132 20749.02083     0.91875    72.49443    73.30517     6.92039
      1133 20765.62005     0.91949    77.61553    78.28320     6.52635
      1134 20782.23255     0.92022    87.21836    86.45593     5.90137
      1135 20798.85833     0.92096    92.04375    91.86279     5.62854
      1136 20815.49742     0.92170    90.87641    90.96144     5.68776
      1137 20832.14982     0.92243    85.56435    86.24558     5.98848
      1138 20848.81554     0.92317    81.89708    82.84358     6.21319
      1139 20865.49459     0.92391    79.53519    80.20466     6.36366
      1140 20882.18699     0.92465    75.65606    76.95338     6.62875
      1141 20898.89274     0.92539    73.55742    74.52521     6.77233
      1142 20915.61185     0.92613    75.61851    77.24098     6.59650
      1143 20932.34434     0.92687    86.40186    87.92712     5.86574
      1144 20949.09021     0.92761   103.57052   102.51069     4.99099
      1145 20965.84949     0.92835   120.10995   120.99361     4.36187
      1146 20982.62217     0.92910   153.95704   156.18496     3.47389
      1147 20999.40826     0.92984   188.80517   187.54708     2.87044
      1148 21016.20779     0.93058   182.84982   181.13503     2.95085
      1149 21033.02076     0.93133   154.87708   157.75354     3.43256
      1150 21049.84717     0.93207   140.51201   143.36207     3.74421
      1151 21066.68705     0.93282   133.96907   136.39053     3.90112
      1152 21083.54040     0.93356   127.71593   128.45274     4.06295
      1153 21100.40723     0.93431   114.75004   113.53004     4.46043
      1154 21117.28756     0.93506    99.67024    99.35550     5.03877
      1155 21134.18139     0.93581    92.00818    91.17465     5.38609
      1156 21151.08873     0.93655    87.22790    87.52345     5.62246
      1157 21168.00961     0.93730    85.79366    85.47796     5.68547
      1158 21184.94401     0.93805    84.50734    84.87345     5.74229
      1159 21201.89197     0.93880    86.26441    85.65999     5.62247
      1160 21218.85348     0.93955    86.27571    85.72326     5.60084
      1161 21235.82856     0.94031    85.54370    85.74280     5.61996
      1162 21252.81723     0.94106    87.41498    88.06695     5.49590
      1163 21269.81948     0.94181    91.11877    90.61145     5.28406
      1164 21286.83534     0.94256    90.05589    88.94047     5.32034
      1165 21303.86481     0.94332    85.49801    85.61585     5.54604
      1166 21320.90790     0.94407    82.22845    83.01644     5.71713
      1167 21337.96462     0.94483    80.40531    80.25414     5.81129
      1168 21355.03499     0.94558    78.82262    79.01561     5.89467
      1169 21372.11902     0.94634    79.87153    79.84311     5.81252
      1170 21389.21672     0.94710    84.85293    84.16881     5.49880
      1171 21406.32809     0.94785    93.75719    92.52863     5.02169
      1172 21423.45315     0.94861    99.47421    97.83992     4.74751
      1173 21440.59192     0.94937   100.32727    99.43804     4.69260
      1174 21457.74439     0.95013   109.15837   110.63395     4.33725
      1175 21474.91059     0.95089   133.17420   133.15734     3.61365
      1176 21492.09051     0.95165   145.57988   143.15013     3.31881
      1177 21509.28419     0.95241   138.31557   137.32270     3.46265
      1178 21526.49161     0.95317   131.92984   133.12821     3.59867
      1179 21543.71281     0.95394   128.53312   128.71015     3.66755
      1180 21560.94778     0.95470   121.04744   121.40432     3.85189
      1181 21578.19654     0.95546   113.78215   115.55112     4.05044
      1182 21595.45909     0.95623   110.81904   111.48602     4.12617
      1183 21612.73546     0.95699   106.32934   106.01267     4.25939
      1184 21630.02565     0.95776   104.91455   105.64181     4.29070
      1185 21647.32967     0.95852   111.87781   114.19463     4.03848
      1186 21664.64753     0.95929   122.68211   121.25496     3.70655
      1187 21681.97925     0.96006   121.45783   118.26528     3.72568
      1188 21699.32483     0.96083   108.54511   107.68093     4.10115
      1189 21716.68429     0.96160    97.15945    97.69977     4.50288
      1190 21734.05764     0.96236    93.26551    93.24072     4.64803
      1191 21751.44489     0.96313    92.46158    91.35867     4.66438
      1192 21768.84604     0.96390    89.64299    89.35134     4.77186
      1193 21786.26112     0.96468    89.85914    89.13463     4.74334
      1194 21803.69013     0.96545    90.17607    89.55523     4.71156
      1195 21821.13308     0.96622    87.15213    85.33080     4.83479
      1196 21838.58999     0.96699    79.70907    78.65777     5.19914
      1197 21856.06086     0.96777    77.02059    75.14787     5.32834
      1198 21873.54571     0.96854    77.20224    76.05721     5.29145
      1199 21891.04454     0.96932    83.22239    82.44523     4.93954
      1200 21908.55738     0.97009    90.46728    90.01417     4.57563
      1201 21926.08423     0.97087    89.60192    89.45544     4.59271
      1202 21943.62509     0.97164    86.61090    86.47372     4.70665
      1203 21961.17999     0.97242    93.13168    91.89750     4.39699
      1204 21978.74894     0.97320   105.07850   102.31156     3.93465
      1205 21996.33194     0.97398   110.41163   107.17838     3.74650
      1206 22013.92900     0.97476   117.14176   114.86939     3.53671
      1207 22031.54015     0.97554   140.11189   142.01454     2.99645
      1208 22049.16538     0.97632   181.01284   185.74850     2.35888
      1209 22066.80471     0.97710   203.39852   206.83902     2.10791
      1210 22084.45815     0.97788   180.02665   181.39411     2.35279
      1211 22102.12572     0.97866   142.91894   145.16986     2.89821
      1212 22119.80742     0.97944   123.18501   122.78393     3.30169
      1213 22137.50327     0.98023   111.84927   112.49386     3.58447
      1214 22155.21327     0.98101   106.94403   106.59360     3.71437
      1215 22172.93744     0.98180   100.81040    98.87460     3.89644
      1216 22190.67579     0.98258    89.25763    87.98801     4.31469
      1217 22208.42833     0.98337    77.70828    77.48230     4.83809
      1218 22226.19507     0.98415    70.46850    70.78628     5.23009
      1219 22243.97603     0.98494    68.49644    68.55343     5.33241
      1220 22261.77121     0.98573    69.90909    69.34509     5.22349
      1221 22279.58063     0.98652    71.35734    70.32790     5.11769
      1222 22297.40429     0.98731    70.50402    70.33436     5.15262
      1223 22315.24222     0.98810    69.82867    69.07926     5.17537
      1224 22333.09441     0.98889    67.61323    67.07547     5.29709
      1225 22350.96088     0.98968    67.89864    66.19860     5.26433
      1226 22368.84165     0.99047    70.61981    69.27024     5.08588
      1227 22386.73673     0.99126    83.12180    81.86038     4.42319
      1228 22404.64612     0.99205   108.63283   107.04630     3.49438
      1229 22422.56983     0.99285   134.92270   130.12843     2.87011
      1230 22440.50789     0.99364   138.04518   134.38281     2.80505
      1231 22458.46030     0.99444   124.62358   126.20604     3.07113
      1232 22476.42706     0.99523   110.62137   112.73581     3.41100
      1233 22494.40820     0.99603    99.30844   101.94451     3.74764
      1234 22512.40373     0.99683    93.55830    95.56882     3.94533
      1235 22530.41365     0.99762    86.71738    86.94421     4.21069
      1236 22548.43799     0.99842    77.57415    77.02897     4.62761
      1237 22566.47674     0.99922    70.28399    70.86600     5.02299
      1238 22584.52992     1.00002    71.69681    70.87706     4.93507
      1239 22602.59754     1.00082    79.00493    78.20482     4.54284
      1240 22620.67962     1.00162    90.44871    89.32917     4.04192
      1241 22638.77616     1.00242    95.62727    94.88124     3.84868
      1242 22656.88718     1.00322    92.41951    91.11325     3.96378
      1243 22675.01269     1.00403    83.97103    84.88305     4.30606
      1244 22693.15270     1.00483    80.31246    82.41603     4.47396
      1245 22711.30723     1.00563    80.39205    81.24593     4.47096
      1246 22729.47627     1.00644    77.84396    79.10009     4.59599
      1247 22747.65985     1.00724    77.19514    79.33188     4.62888
      1248 22765.85798     1.00805    84.20994    85.23797     4.29703
      1249 22784.07067     1.00885    97.42549    99.09180     3.78520
      1250 22802.29792     1.00966   118.84506   117.68222     3.17284
      1251 22820.53976     1.01047   132.16598   129.94828     2.88201
      1252 22838.79619     1.01128   135.20940   134.27114     2.82194
      1253 22857.06723     1.01209   138.03280   137.13325     2.76818
      1254 22875.35288     1.01290   136.62672   135.52418     2.79216
      1255 22893.65317     1.01371   122.20770   123.43791     3.08577
      1256 22911.96809     1.01452   105.96878   108.12560     3.50087
      1257 22930.29766     1.01533    92.82881    95.70231     3.92704
      1258 22948.64190     1.01614    84.98436    86.93777     4.23258
      1259 22967.00082     1.01695    81.47971    83.91706     4.38245
      1260 22985.37442     1.01777    86.93749    89.85015     4.14055
      1261 23003.76272     1.01858   101.94004   102.80317     3.59885
      1262 23022.16573     1.01940   116.99891   115.01589     3.17896
      1263 23040.58346     1.02021   124.49140   121.23673     3.00066
      1264 23059.01593     1.02103   123.49125   119.13649     3.01562
      1265 23077.46314     1.02184   110.07844   109.90506     3.33301
      1266 23095.92511     1.02266   100.80589   105.43104     3.59132
      1267 23114.40185     1.02348   105.31749   108.88690     3.44422
      1268 23132.89337     1.02430   112.46217   113.25430     3.23913
      1269 23151.39968     1.02512   118.31107   118.67855     3.08594
      1270 23169.92080     1.02594   129.32397   126.88353     2.84017
      1271 23188.45674     1.02676   128.93563   125.00063     2.83952
      1272 23207.00751     1.02758   111.69534   112.31313     3.21935
      1273 23225.57311     1.02840    97.40492   100.18283     3.62172
      1274 23244.15357     1.02922    90.99028    94.04230     3.83228
      1275 23262.74889     1.03005    87.72725    91.07212     3.94432
      1276 23281.35909     1.03087    83.51629    85.44454     4.10442
      1277 23299.98418     1.03170    77.05739    79.01254     4.38528
      1278 23318.62417     1.03252    74.50182    75.90012     4.50036
      1279 23337.27907     1.03335    74.86528    75.34870     4.46842
      1280 23355.94889     1.03417    75.98194    76.58751     4.39820
      1281 23374.63365     1.03500    81.09211    81.44027     4.14638
      1282 23393.33336     1.03583    92.15368    91.08381     3.70039
      1283 23412.04802     1.03666    99.51017    97.76139     3.44923
      1284 23430.77766     1.03749    93.67879    92.17233     3.62598
      1285 23449.52228     1.03832    82.19370    82.69447     4.04846
      1286 23468.28190     1.03915    77.34708    79.08892     4.25009
      1287 23487.05653     1.03998    78.22297    79.47508     4.19390
      1288 23505.84617     1.04081    76.31464    77.18448     4.26692
      1289 23524.65085     1.04164    72.71378    72.88157     4.42916
      1290 23543.47057     1.04248    70.42994    70.35613     4.53359
      1291 23562.30535     1.04331    74.30385    72.73809     4.31662
      1292 23581.15519     1.04415    82.84382    82.00763     3.91679
      1293 23600.02011     1.04498    96.41819    95.16483     3.41849
      1294 23618.90013     1.04582   108.79482   106.20616     3.06060
      1295 23637.79525     1.04665   115.01546   113.41742     2.90132
      1296 23656.70549     1.04749   118.22387   120.08452     2.82038
      1297 23675.63085     1.04833   131.50339   133.45914     2.55465
      1298 23694.57136     1.04917   151.95823   146.37908     2.23286
      1299 23713.52701     1.05001   145.56862   138.91756     2.31432
      1300 23732.49783     1.05085   118.01882   118.44475     2.78729
      1301 23751.48383     1.05169    99.74311   102.20487     3.22495
      1302 23770.48502     1.05253    89.33154    91.51728     3.54081
      1303 23789.50141     1.05337    83.61048    83.84361     3.73778
      1304 23808.53301     1.05421    80.45128    79.94034     3.84982
      1305 23827.57984     1.05506    79.70269    78.15729     3.86597
      1306 23846.64190     1.05590    79.12947    77.13684     3.87532
      1307 23865.71921     1.05674    77.20344    77.64807     3.94302
      1308 23884.81179     1.05759    77.21330    78.32396     3.92729
      1309 23903.91964     1.05844    77.89324    78.36699     3.88253
      1310 23923.04277     1.05928    77.72197    77.57894     3.87414
      1311 23942.18121     1.06013    75.84782    75.50689     3.93893
      1312 23961.33495     1.06098    72.41217    72.59552     4.07980
      1313 23980.50402     1.06183    71.45637    70.37110     4.11058
      1314 23999.68842     1.06268    70.57497    69.15319     4.13800
      1315 24018.88817     1.06353    69.90138    68.70353     4.15562
      1316 24038.10328     1.06438    72.07887    70.74293     4.03486
      1317 24057.33377     1.06523    79.30845    77.66354     3.70763
      1318 24076.57963     1.06608    90.91318    88.90184     3.28439
      1319 24095.84090     1.06693   100.62834    99.40181     2.99299
      1320 24115.11757     1.06779   104.81564   103.21937     2.87388
      1321 24134.40967     1.06864   106.28041   104.89787     2.82554
      1322 24153.71719     1.06950   110.07801   109.47104     2.72770
      1323 24173.04017     1.07035   112.68557   112.75775     2.66184
      1324 24192.37860     1.07121   110.37643   111.72528     2.70193
      1325 24211.73250     1.07206   100.80974   103.20713     2.91704
      1326 24231.10189     1.07292    90.49368    90.05052     3.19344
      1327 24250.48677     1.07378    78.53732    78.54316     3.59125
      1328 24269.88716     1.07464    71.45506    71.91266     3.87207
      1329 24289.30307     1.07550    69.84408    68.86108     3.92928
      1330 24308.73451     1.07636    67.53937    66.98661     4.02358
      1331 24328.18150     1.07722    66.61761    65.60536     4.05417
      1332 24347.64404     1.07808    66.15323    64.93231     4.06280
      1333 24367.12216     1.07894    66.93328    65.96647     4.00947
      1334 24386.61586     1.07981    72.84996    71.34145     3.72427
      1335 24406.12515     1.08067    83.51519    83.11536     3.30682
      1336 24425.65005     1.08154    96.42536    95.85679     2.91184
      1337 24445.19057     1.08240   101.58162    99.69083     2.77343
      1338 24464.74672     1.08327    99.01460    97.74172     2.82740
      1339 24484.31852     1.08413   101.29459   100.09443     2.76355
      1340 24503.90597     1.08500   111.34970   109.59809     2.53550
      1341 24523.50910     1.08587   117.74112   116.59059     2.40593
      1342 24543.12791     1.08674   114.52463   113.64934     2.45817
      1343 24562.76241     1.08761   106.87567   106.51682     2.60404
      1344 24582.41262     1.08848    99.10883    99.02965     2.77207
      1345 24602.07855     1.08935    93.65802    93.81778     2.90071
      1346 24621.76021     1.09022    91.53037    92.13819     2.94760
      1347 24641.45762     1.09109    89.25217    89.06359     3.00159
      1348 24661.17079     1.09196    82.79550    82.30176     3.19020
      1349 24680.89972     1.09284    74.60866    75.26619     3.47292
      1350 24700.64444     1.09371    70.58937    70.86904     3.62727
      1351 24720.40496     1.09459    70.35185    69.45802     3.62596
      1352 24740.18128     1.09546    71.25253    69.92800     3.57467
      1353 24759.97343     1.09634    75.49458    73.48516     3.39293
      1354 24779.78141     1.09722    86.67241    84.79912     3.00501
      1355 24799.60523     1.09809   106.51988   104.90873     2.50038
      1356 24819.44491     1.09897   123.76429   122.49245     2.17850
      1357 24839.30047     1.09985   121.26898   120.91540     2.20910
      1358 24859.17191     1.10073   101.88743   102.90636     2.56693
      1359 24879.05925     1.10161    83.23468    84.26318     3.04772
      1360 24898.96250     1.10249    72.58515    72.69771     3.41434
      1361 24918.88167     1.10337    66.40944    67.32975     3.67041
      1362 24938.81677     1.10426    66.19781    65.43037     3.67343
      1363 24958.76782     1.10514    66.97908    64.91380     3.62780
      1364 24978.73484     1.10602    66.09150    65.03282     3.65386
      1365 24998.71783     1.10691    68.61503    66.35539     3.52608
      1366 25018.71680     1.10779    71.01272    68.63690     3.40959
      1367 25038.73177     1.10868    71.60569    70.45463     3.36867
      1368 25058.76276     1.10957    73.03820    72.11061     3.29760
      1369 25078.80977     1.11046    75.24808    75.12787     3.20269
      1370 25098.87282     1.11134    77.59915    77.94746     3.11022
      1371 25118.95192     1.11223    76.74082    76.96073     3.13164
      1372 25139.04708     1.11312    73.56722    73.81636     3.23845
      1373 25159.15832     1.11401    73.23764    73.34997     3.24384
      1374 25179.28564     1.11490    78.61044    78.68743     3.04885
      1375 25199.42907     1.11580    90.00915    90.18646     2.70843
      1376 25219.58861     1.11669   101.32214   101.41984     2.43724
      1377 25239.76428     1.11758   102.61810   102.45806     2.40452
      1378 25259.95610     1.11848    96.14506    96.28330     2.54026
      1379 25280.16406     1.11937    88.97640    90.10979     2.71285
      1380 25300.38819     1.12027    83.65743    83.33129     2.85813
      1381 25320.62850     1.12116    75.76710    76.18775     3.10757
      1382 25340.88501     1.12206    72.15067    72.63123     3.23646
      1383 25361.15771     1.12296    77.57376    76.56523     3.04416
      1384 25381.44664     1.12385    89.45451    88.64275     2.69423
      1385 25401.75180     1.12475   101.19347    99.86195     2.41878
      1386 25422.07320     1.12565   100.22338    98.70561     2.43759
      1387 25442.41086     1.12655    89.41992    90.51647     2.68839
      1388 25462.76479     1.12746    83.83868    85.01556     2.83599
      1389 25483.13500     1.12836    82.47065    82.36006     2.87109
      1390 25503.52151     1.12926    82.27324    81.19483     2.87416
      1391 25523.92432     1.13016    86.45716    84.47624     2.75529
      1392 25544.34346     1.13107    92.78650    93.86398     2.59363
      1393 25564.77894     1.13197   103.90087   104.93981     2.35099
      1394 25585.23076     1.13288   108.63623   107.35262     2.26133
      1395 25605.69894     1.13378    99.13731    99.52421     2.45166
      1396 25626.18350     1.13469    89.21259    89.99304     2.68817
      1397 25646.68445     1.13560    83.44580    84.39405     2.84842
      1398 25667.20180     1.13651    81.91816    82.45317     2.89380
      1399 25687.73556     1.13742    79.40154    80.68602     2.96957
      1400 25708.28575     1.13833    76.65116    78.14884     3.05561
      1401 25728.85238     1.13924    75.51541    76.22401     3.09019
      1402 25749.43546     1.14015    77.12024    77.76835     3.03350
      1403 25770.03501     1.14106    83.16252    84.16854     2.84563
      1404 25790.65103     1.14197    88.39827    90.00762     2.70280
      1405 25811.28356     1.14289    88.29491    89.06698     2.71006
      1406 25831.93258     1.14380    84.29040    84.35238     2.82609
      1407 25852.59813     1.14472    83.41987    83.06449     2.85544
      1408 25873.28021     1.14563    89.91528    90.87438     2.67560
      1409 25893.97883     1.14655   105.15352   104.12921     2.32721
      1410 25914.69401     1.14746   112.00913   108.37055     2.19264
      1411 25935.42577     1.14838   100.70791   100.43719     2.39830
      1412 25956.17411     1.14930    87.65664    89.99758     2.69261
      1413 25976.93905     1.15022    81.94849    83.92334     2.84009
      1414 25997.72060     1.15114    81.78741    83.59766     2.83609
      1415 26018.51878     1.15206    83.41761    84.23287     2.78296
      1416 26039.33359     1.15298    79.50082    81.42912     2.89421
      1417 26060.16506     1.15391    77.08277    78.16428     2.96616
      1418 26081.01319     1.15483    80.62336    79.30388     2.85220
      1419 26101.87800     1.15575    93.46988    91.31217     2.50930
      1420 26122.75950     1.15668   129.44089   126.32815     1.87788
      1421 26143.65771     1.15760   189.30593   186.19536     1.32182
      1422 26164.57264     1.15853   234.38823   231.95362     1.07859
      1423 26185.50430     1.15946   220.49233   219.24721     1.13860
      1424 26206.45270     1.16038   168.27089   169.59572     1.45915
      1425 26227.41786     1.16131   122.63235   125.85285     1.93731
      1426 26248.39980     1.16224   102.46264   103.96958     2.26052
      1427 26269.39852     1.16317    94.48859    96.65665     2.41390
      1428 26290.41403     1.16410    91.08303    91.19700     2.48048
      1429 26311.44637     1.16503    81.45681    83.10219     2.71915
      1430 26332.49552     1.16596    74.52097    75.59463     2.92179
      1431 26353.56152     1.16690    71.58409    71.87278     3.01410
      1432 26374.64437     1.16783    72.00662    71.85100     2.99333
      1433 26395.74408     1.16876    73.85418    72.64862     2.92325
      1434 26416.86068     1.16970    71.65552    71.72911     2.98787
      1435 26437.99417     1.17063    70.06839    69.71526     3.03130
      1436 26459.14456     1.17157    69.64408    68.90974     3.03315
      1437 26480.31188     1.17251    71.66894    70.77234     2.95127
      1438 26501.49613     1.17345    75.89876    74.15258     2.80461
      1439 26522.69733     1.17439    77.96589    76.82720     2.73321
      1440 26543.91548     1.17532    81.99033    79.83397     2.60752
      1441 26565.15062     1.17627    85.78181    84.53049     2.49476
      1442 26586.40274     1.17721    89.73099    87.94888     2.38549
      1443 26607.67186     1.17815    92.00685    89.68827     2.32093
      1444 26628.95800     1.17909    92.90279    92.87192     2.28974
      1445 26650.26116     1.18003    96.97362    95.71047     2.19660
      1446 26671.58137     1.18098    94.07032    92.93106     2.24700
      1447 26692.91864     1.18192    86.42845    85.00244     2.40995
      1448 26714.27297     1.18287    78.83850    77.37104     2.59929
      1449 26735.64439     1.18381    75.59503    74.49202     2.68551
      1450 26757.03290     1.18476    79.80332    78.32065     2.55647
      1451 26778.43853     1.18571    91.06672    87.93436     2.27376
      1452 26799.86128     1.18666   102.62043    98.98681     2.03961
      1453 26821.30117     1.18761   113.75553   110.98256     1.85307
      1454 26842.75821     1.18856   129.00993   127.24233     1.64728
      1455 26864.23242     1.18951   143.73104   141.27644     1.48636
      1456 26885.72380     1.19046   144.62004   142.89579     1.47070
      1457 26907.23238     1.19141   134.77554   135.04182     1.56068
      1458 26928.75817     1.19236   121.26349   123.17072     1.70948
      1459 26950.30118     1.19332   107.41691   109.75196     1.89757
      1460 26971.86142     1.19427    95.79522    98.69052     2.09170
      1461 26993.43891     1.19523    89.94635    91.29608     2.20276
      1462 27015.03366     1.19618    86.44937    87.31465     2.27180
      1463 27036.64568     1.19714    84.62872    85.77570     2.30592
      1464 27058.27500     1.19810    85.86871    84.94844     2.26988
      1465 27079.92162     1.19906    84.45516    83.02989     2.29504
      1466 27101.58556     1.20002    81.69951    80.27265     2.35336
      1467 27123.26683     1.20098    82.49409    81.67684     2.32620
      1468 27144.96544     1.20194    93.77791    92.59837     2.07580
      1469 27166.68141     1.20290   110.14844   110.50710     1.79580
      1470 27188.41476     1.20386   123.21364   121.72976     1.61863
      1471 27210.16549     1.20482   122.27630   120.51984     1.62256
      1472 27231.93362     1.20579   119.89066   117.05250     1.64382
      1473 27253.71917     1.20675   124.20337   120.91154     1.58593
      1474 27275.52214     1.20772   141.02771   139.00048     1.40920
      1475 27297.34256     1.20868   164.61568   166.62218     1.21943
      1476 27319.18044     1.20965   177.55846   179.29002     1.13309
      1477 27341.03578     1.21062   166.47461   163.82480     1.19729
      1478 27362.90861     1.21159   133.55055   133.45961     1.45613
      1479 27384.79894     1.21256   104.32633   105.04575     1.80505
      1480 27406.70677     1.21353    84.25273    86.26565     2.16206
      1481 27428.63214     1.21450    76.03364    76.71971     2.34950
      1482 27450.57505     1.21547    75.19760    73.98308     2.36434
      1483 27472.53551     1.21644    77.62754    77.16723     2.29592
      1484 27494.51353     1.21741    87.21603    86.59590     2.07424
      1485 27516.50914     1.21839   101.13778   100.28968     1.81927
      1486 27538.52235     1.21936   112.04491   111.52331     1.65565
      1487 27560.55317     1.22034   111.84025   113.35403     1.64959
      1488 27582.60161     1.22131   102.86359   103.92805     1.76505
      1489 27604.66769     1.22229    91.13614    90.94125     1.94942
      1490 27626.75143     1.22327    84.02474    82.57450     2.07939
      1491 27648.85283     1.22425    85.89007    84.47195     2.03293
      1492 27670.97191     1.22523   105.63975   102.18024     1.69521
      1493 27693.10869     1.22621   134.33791   134.07116     1.36577
      1494 27715.26318     1.22719   158.96217   158.30166     1.16887
      1495 27737.43539     1.22817   151.98624   152.80393     1.21317
      1496 27759.62533     1.22915   126.82995   127.84122     1.42205
      1497 27781.83303     1.23014   102.85330   103.86111     1.70233
      1498 27804.05850     1.23112    90.54572    91.26842     1.88903
      1499 27826.30175     1.23211    91.11614    91.07802     1.86637
      1500 27848.56279     1.23309    99.35097    96.65399     1.72110
      1501 27870.84164     1.23408    99.88532    96.47897     1.70109
      1502 27893.13831     1.23506    88.15482    87.87169     1.87814
      1503 27915.45282     1.23605    77.05072    77.77996     2.08702
      1504 27937.78519     1.23704    69.73157    71.20690     2.25321
      1505 27960.13541     1.23803    66.87634    68.72338     2.32537
      1506 27982.50352     1.23902    67.35755    68.96386     2.31222
      1507 28004.88953     1.24001    69.36480    69.95411     2.26053
      1508 28027.29344     1.24100    70.20617    70.24332     2.23981
      1509 28049.71527     1.24200    71.27138    70.69909     2.21107
      1510 28072.15504     1.24299    74.20627    73.22334     2.13470
      1511 28094.61277     1.24399    80.29344    78.59929     1.99298
      1512 28117.08846     1.24498    86.01261    86.18800     1.87265
      1513 28139.58213     1.24598    91.15870    92.38394     1.77258
      1514 28162.09379     1.24697    89.86899    92.13126     1.78485
      1515 28184.62347     1.24797    84.94828    85.60635     1.86501
      1516 28207.17117     1.24897    77.65181    77.43878     2.00587
      1517 28229.73691     1.24997    71.33568    71.37521     2.14510
      1518 28252.32069     1.25097    69.40666    68.25898     2.18435
      1519 28274.92255     1.25197    68.35816    67.39264     2.19991
      1520 28297.54249     1.25297    67.91558    68.17437     2.20064
      1521 28320.18052     1.25397    71.62171    71.25397     2.09879
      1522 28342.83667     1.25498    78.11514    77.36246     1.94715
      1523 28365.51094     1.25598    84.90438    85.21906     1.80956
      1524 28388.20335     1.25698    91.51239    91.36313     1.69163
      1525 28410.91391     1.25799    91.40391    91.97340     1.68668
      1526 28433.64264     1.25900    87.01423    86.06115     1.75228
      1527 28456.38955     1.26000    77.71262    77.78742     1.92128
      1528 28479.15467     1.26101    71.56889    71.36776     2.05274
      1529 28501.93799     1.26202    68.67442    68.08697     2.12159
      1530 28524.73954     1.26303    69.94039    68.02759     2.08830
      1531 28547.55933     1.26404    73.53780    72.38464     2.00047
      1532 28570.39738     1.26505    83.65534    82.79085     1.79091
      1533 28593.25370     1.26606    97.78329    96.27307     1.56221
      1534 28616.12830     1.26708   104.50733   102.88187     1.47049
      1535 28639.02120     1.26809    97.90563    98.18995     1.55272
      1536 28661.93242     1.26910    88.43746    89.02913     1.69133
      1537 28684.86197     1.27012    79.45000    81.43093     1.84931
      1538 28707.80985     1.27114    74.00932    76.18679     1.95989
      1539 28730.77610     1.27215    70.24465    72.56471     2.04450
      1540 28753.76072     1.27317    69.71169    70.19837     2.05695
      1541 28776.76373     1.27419    68.00655    68.61397     2.10010
      1542 28799.78514     1.27521    66.66651    67.83862     2.13477
      1543 28822.82497     1.27623    69.50002    68.55300     2.06322
      1544 28845.88323     1.27725    73.58987    72.72606     1.96800
      1545 28868.95994     1.27827    85.58025    84.48731     1.73349
      1546 28892.05511     1.27929   109.24179   106.83389     1.40384
      1547 28915.16875     1.28032   132.80550   132.41929     1.18015
      1548 28938.30088     1.28134   143.35648   142.70463     1.10140
      1549 28961.45153     1.28237   136.02978   134.58713     1.15473
      1550 28984.62069     1.28339   122.45774   121.79963     1.26911
      1551 29007.80838     1.28442   113.04895   111.84883     1.36297
      1552 29031.01463     1.28545   109.37008   108.39049     1.40338
      1553 29054.23944     1.28648   109.91334   112.77553     1.39692
      1554 29077.48283     1.28750   114.29557   116.98960     1.34912
      1555 29100.74482     1.28853   109.00643   111.72155     1.40659
      1556 29124.02542     1.28957    97.73721    99.67700     1.54842
      1557 29147.32464     1.29060    87.22271    88.89237     1.71066
      1558 29170.64250     1.29163    81.77247    82.47180     1.81169
      1559 29193.97901     1.29266    76.53930    78.41318     1.92121
      1560 29217.33419     1.29370    75.63291    75.26090     1.94622
      1561 29240.70806     1.29473    73.34760    72.82504     2.00112
      1562 29264.10063     1.29577    72.73010    71.45913     2.01607
      1563 29287.51191     1.29680    73.99368    73.14159     1.98492
      1564 29310.94192     1.29784    80.31200    80.33706     1.85035
      1565 29334.39067     1.29888    91.42350    91.68853     1.65577
      1566 29357.85818     1.29992    96.54102    98.61435     1.57977
      1567 29381.34447     1.30096    92.57736    94.20587     1.63832
      1568 29404.84954     1.30200    82.16397    83.56176     1.81419
      1569 29428.37342     1.30304    73.50865    74.21561     1.99210
      1570 29451.91612     1.30408    68.07929    68.70668     2.12314
      1571 29475.47766     1.30513    65.14162    66.08948     2.20337
      1572 29499.05804     1.30617    64.97372    64.95291     2.21157
      1573 29522.65728     1.30722    63.34815    64.51456     2.26116
      1574 29546.27541     1.30826    64.71802    64.64740     2.22666
      1575 29569.91243     1.30931    65.48275    65.68274     2.20966
      1576 29593.56836     1.31036    66.23736    67.89205     2.19277
      1577 29617.24322     1.31140    70.60949    70.63260     2.08227
      1578 29640.93701     1.31245    72.84623    72.31441     2.02914
      1579 29664.64976     1.31350    72.38644    72.63112     2.03869
      1580 29688.38148     1.31455    72.42006    73.09370     2.03651
      1581 29712.13218     1.31561    76.32248    74.89844     1.94763
      1582 29735.90189     1.31666    79.51730    79.21558     1.87929
      1583 29759.69061     1.31771    86.17807    87.07923     1.75236
      1584 29783.49836     1.31877    97.13344    96.90744     1.57887
      1585 29807.32516     1.31982    99.95720   102.82183     1.53894
      1586 29831.17102     1.32088    97.87740    99.67901     1.56635
      1587 29855.03596     1.32193    88.11461    90.74262     1.71347
      1588 29878.91999     1.32299    79.74191    81.66400     1.86466
      1589 29902.82312     1.32405    73.89471    75.29946     1.98863
      1590 29926.74538     1.32511    71.73324    71.52343     2.04002
      1591 29950.68678     1.32617    69.00096    69.12133     2.10801
      1592 29974.64733     1.32723    68.40337    67.67913     2.12317
      1593 29998.62705     1.32829    68.01114    67.48590     2.13076
      1594 30022.62595     1.32935    69.27328    68.72212     2.09445
      1595 30046.64405     1.33042    72.62541    70.91229     2.00975
      1596 30070.68136     1.33148    73.30116    73.22674     1.98914
      1597 30094.73791     1.33255    75.95751    75.97978     1.92462
      1598 30118.81370     1.33361    80.53458    80.48885     1.82635
      1599 30142.90875     1.33468    84.81672    86.12410     1.74291
      1600 30167.02308     1.33575    88.59541    89.84878     1.67453
      1601 30191.15670     1.33682    91.59186    91.51539     1.62273
      1602 30215.30962     1.33789    95.94037    94.97521     1.55491
      1603 30239.48187     1.33896    99.87130   100.70465     1.49873
      1604 30263.67345     1.34003   103.82389   105.21005     1.44727
      1605 30287.88439     1.34110   104.12893   106.81319     1.44226
      1606 30312.11470     1.34217   102.97408   105.03274     1.45413
      1607 30336.36439     1.34325    99.71171   101.88377     1.49236
      1608 30360.63348     1.34432    98.70479    98.64675     1.50159
      1609 30384.92199     1.34540    93.69034    93.71984     1.56662
      1610 30409.22993     1.34647    89.44817    89.21082     1.62628
      1611 30433.55731     1.34755    89.32317    90.39641     1.62464
      1612 30457.90416     1.34863    98.18254    99.12447     1.49389
      1613 30482.27048     1.34971   109.65567   110.33161     1.35334
      1614 30506.65630     1.35079   118.75684   118.87448     1.25884
      1615 30531.06162     1.35187   129.92246   130.57386     1.15959
      1616 30555.48647     1.35295   148.26286   150.50453     1.02730
      1617 30579.93086     1.35403   161.17691   165.26665     0.95000
      1618 30604.39481     1.35511   154.68443   157.56515     0.98408
      1619 30628.87832     1.35620   134.85152   135.02045     1.11134
      1620 30653.38142     1.35728   114.50642   115.41458     1.28224
      1621 30677.90413     1.35837   112.45658   109.43957     1.29911
      1622 30702.44645     1.35946   122.52692   122.27195     1.20123
      1623 30727.00841     1.36054   151.61043   150.33702     0.98943
      1624 30751.59002     1.36163   170.66409   172.26448     0.88569
      1625 30776.19129     1.36272   168.75135   165.37320     0.89239
      1626 30800.81224     1.36381   138.19057   136.88026     1.06660
      1627 30825.45289     1.36490   107.35996   108.03671     1.32946
      1628 30850.11325     1.36599    88.37859    90.00620     1.56733
      1629 30874.79334     1.36709    82.57978    82.71768     1.65694
      1630 30899.49318     1.36818    79.91191    81.53542     1.70153
      1631 30924.21277     1.36927    80.51820    81.34331     1.68925
      1632 30948.95214     1.37037    79.77351    80.11189     1.70084
      1633 30973.71131     1.37147    80.32226    80.53083     1.68919
      1634 30998.49028     1.37256    86.49782    86.52887     1.58371
      1635 31023.28907     1.37366    97.64861    97.76581     1.42286
      1636 31048.10770     1.37476   107.85937   106.29213     1.29987
      1637 31072.94618     1.37586   106.05567   104.24942     1.31438
      1638 31097.80454     1.37696    97.38021    95.79868     1.41198
      1639 31122.68279     1.37806    90.10805    89.98504     1.50635
      1640 31147.58093     1.37917    89.52698    89.74977     1.51066
      1641 31172.49900     1.38027    89.65434    90.32380     1.50348
      1642 31197.43700     1.38137    86.68711    86.59381     1.54141
      1643 31222.39495     1.38248    78.98454    79.74060     1.66147
      1644 31247.37286     1.38358    73.20067    73.46891     1.76696
      1645 31272.37076     1.38469    68.88795    69.51370     1.85710
      1646 31297.38866     1.38580    68.30816    67.66786     1.86878
      1647 31322.42657     1.38691    67.65232    67.26839     1.87991
      1648 31347.48451     1.38802    68.86273    67.88075     1.84621
      1649 31372.56250     1.38913    70.07568    69.07185     1.81253
      1650 31397.66055     1.39024    69.16887    70.33268     1.82558
      1651 31422.77867     1.39135    71.84120    71.45491     1.76511
      1652 31447.91690     1.39246    73.02814    72.65596     1.73809
      1653 31473.07523     1.39358    75.84103    74.49749     1.68119
      1654 31498.25369     1.39469    78.61381    77.56101     1.62789
      1655 31523.45229     1.39581    83.53907    82.94142     1.54220
      1656 31548.67106     1.39692    96.14445    94.99574     1.36326
      1657 31573.90999     1.39804   123.05686   120.76137     1.09427
      1658 31599.16912     1.39916   162.49408   159.57738     0.84895
      1659 31624.44846     1.40028   195.82708   191.85687     0.71319
      1660 31649.74801     1.40140   194.30021   191.14370     0.71694
      1661 31675.06781     1.40252   159.56311   159.93020     0.85787
      1662 31700.40787     1.40364   119.87287   122.88994     1.10782
      1663 31725.76819     1.40477    92.42152    96.53649     1.38676
      1664 31751.14881     1.40589    82.61970    83.18279     1.52112
      1665 31776.54973     1.40702    77.64860    79.49508     1.59751
      1666 31801.97097     1.40814    81.66802    82.96433     1.52708
      1667 31827.41254     1.40927    92.06155    91.94776     1.37682
      1668 31852.87447     1.41039   102.05453   102.57310     1.25779
      1669 31878.35677     1.41152   105.31408   107.50911     1.22152
      1670 31903.85946     1.41265   101.04605   103.24911     1.26271
      1671 31929.38255     1.41378    96.20206    94.76727     1.31251
      1672 31954.92605     1.41491    89.58338    88.49873     1.38876
      1673 31980.48999     1.41605    85.58060    86.03548     1.43677
      1674 32006.07439     1.41718    85.06390    85.31977     1.43913
      1675 32031.67924     1.41831    83.78065    84.61580     1.45484
      1676 32057.30459     1.41945    80.22754    82.77612     1.50655
      1677 32082.95043     1.42058    79.69521    80.65567     1.51234
      1678 32108.61679     1.42172    82.29213    81.26282     1.46898
      1679 32134.30369     1.42286    87.39829    87.45622     1.39155
      1680 32160.01113     1.42399   100.28855   100.67500     1.23161
      1681 32185.73914     1.42513   121.85699   119.84490     1.03401
      1682 32211.48773     1.42627   142.36879   138.73670     0.89633
      1683 32237.25692     1.42741   150.85279   147.59519     0.84775
      1684 32263.04672     1.42856   145.01003   145.34233     0.87549
      1685 32288.85716     1.42970   137.17542   140.11656     0.91727
      1686 32314.68825     1.43084   131.61627   133.74634     0.94892
      1687 32340.54000     1.43199   117.95812   122.52621     1.04231
      1688 32366.41243     1.43313   105.94297   108.26803     1.14069
      1689 32392.30556     1.43428    93.97460    95.92015     1.25961
      1690 32418.21940     1.43543    88.39440    89.26665     1.32125
      1691 32444.15398     1.43658    90.32405    90.79998     1.29170
      1692 32470.10930     1.43773   100.40084   100.99209     1.17569
      1693 32496.08539     1.43888   117.13240   115.94221     1.02560
      1694 32522.08226     1.44003   128.58963   127.20174     0.94245
      1695 32548.09992     1.44118   129.23310   127.17197     0.93638
      1696 32574.13840     1.44233   123.33848   119.07319     0.97443
      1697 32600.19772     1.44349   117.03039   112.69088     1.01975
      1698 32626.27787     1.44464   118.34315   114.07490     1.00896
      1699 32652.37890     1.44580   129.01658   123.95549     0.93311
      1700 32678.50080     1.44695   137.49932   135.87419     0.87963
      1701 32704.64360     1.44811   136.59959   136.16441     0.88288
      1702 32730.80731     1.44927   120.75938   120.92809     0.98328
      1703 32756.99196     1.45043   102.62997   100.60774     1.13070
      1704 32783.19755     1.45159    84.12803    84.75526     1.33493
      1705 32809.42411     1.45275    76.98962    75.64557     1.43094
      1706 32835.67165     1.45391    70.41332    71.46191     1.53438
      1707 32861.94019     1.45508    70.26425    70.21597     1.53260
      1708 32888.22974     1.45624    70.80704    70.85747     1.51824
      1709 32914.54032     1.45740    72.32705    72.65489     1.48582
      1710 32940.87196     1.45857    76.44381    74.44597     1.41344
      1711 32967.22465     1.45974    75.77619    74.77624     1.41902
      1712 32993.59843     1.46091    73.87866    73.74168     1.44654
      1713 33019.99331     1.46207    72.35156    73.21571     1.47086
      1714 33046.40931     1.46324    73.78187    74.79717     1.44709
      1715 33072.84643     1.46441    78.16684    78.49791     1.37806
      1716 33099.30471     1.46559    82.34390    82.81047     1.31616
      1717 33125.78416     1.46676    86.35325    86.94830     1.26057
      1718 33152.28478     1.46793    92.32709    91.47913     1.18696
      1719 33178.80661     1.46911    93.49971    94.54471     1.17002
      1720 33205.34966     1.47028    91.98268    92.64595     1.18237
      1721 33231.91394     1.47146    86.33443    86.72662     1.24397
      1722 33258.49947     1.47264    81.13024    81.32075     1.30793
      1723 33285.10627     1.47381    79.96418    80.32516     1.32245
      1724 33311.73435     1.47499    85.96551    86.20936     1.24326
      1725 33338.38374     1.47617    99.76040   100.35831     1.09268
      1726 33365.05445     1.47735   119.94764   121.87950     0.92723
      1727 33391.74649     1.47854   147.62702   147.38454     0.76706
      1728 33418.45989     1.47972   172.85569   171.78519     0.66191
      1729 33445.19465     1.48090   192.43731   189.05996     0.59769
      1730 33471.95081     1.48209   196.32132   192.28066     0.58503
      1731 33498.72837     1.48327   176.98545   174.51926     0.64197
      1732 33525.52735     1.48446   143.66775   143.98031     0.77418
      1733 33552.34778     1.48565   114.72653   117.32870     0.94354
      1734 33579.18965     1.48684    99.21168   105.03153     1.06814
      1735 33606.05301     1.48802   107.28209   109.69867     0.99604
      1736 33632.93785     1.48922   125.52161   128.66730     0.86571
      1737 33659.84420     1.49041   153.06992   153.71191     0.72290
      1738 33686.77207     1.49160   169.52786   169.95354     0.65722
      1739 33713.72149     1.49279   164.22184   164.72801     0.67512
      1740 33740.69247     1.49399   142.80947   145.33519     0.76473
      1741 33767.68502     1.49518   131.61637   131.94813     0.82103
      1742 33794.69917     1.49638   140.38259   140.66309     0.77313
      1743 33821.73493     1.49758   173.61736   174.42944     0.63581
      1744 33848.79232     1.49877   213.63191   216.61602     0.52349
      1745 33875.87135     1.49997   232.41183   234.96584     0.48267
      1746 33902.97205     1.50117   208.29475   212.12005     0.53338
      1747 33930.09443     1.50237   164.78310   166.48180     0.66040
      1748 33957.23850     1.50358   122.58926   124.33610     0.85984
      1749 33984.40429     1.50478    95.35796    97.04871     1.06806
      1750 34011.59182     1.50598    81.66163    82.89975     1.21574
      1751 34038.80109     1.50719    76.14726    76.63365     1.28655
      1752 34066.03213     1.50839    75.28573    74.86245     1.29611
      1753 34093.28496     1.50960    79.96928    77.00672     1.22827
      1754 34120.55958     1.51081    86.45914    84.33372     1.14543
      1755 34147.85603     1.51202    98.92052    97.13730     1.01655
      1756 34175.17432     1.51323   109.15725   110.65433     0.92948
      1757 34202.51446     1.51444   112.59334   115.71189     0.90176
      1758 34229.87647     1.51565   108.41371   110.17991     0.93034
      1759 34257.26037     1.51686   102.58506   102.14549     0.97583
      1760 34284.66618     1.51807    98.87406    99.09000     1.00770
      1761 34312.09391     1.51929   100.82052   101.42670     0.99018
      1762 34339.54359     1.52050   105.45169   104.79437     0.95035
      1763 34367.01522     1.52172   107.80278   106.65850     0.92969
      1764 34394.50883     1.52294   108.06381   107.25991     0.92533
      1765 34422.02444     1.52416   107.94965   106.31102     0.92423
      1766 34449.56206     1.52538   102.56325   101.44348     0.96390
      1767 34477.12171     1.52660    93.82148    92.56236     1.03790
      1768 34504.70341     1.52782    82.70293    82.92506     1.15085
      1769 34532.30717     1.52904    75.30076    75.49583     1.23820
      1770 34559.93301     1.53026    69.98034    71.05474     1.30732
      1771 34587.58096     1.53149    68.35487    68.99647     1.32553
      1772 34615.25103     1.53271    68.55167    68.49246     1.31617
      1773 34642.94323     1.53394    68.76555    68.90062     1.30679
      1774 34670.65758     1.53517    68.95987    69.41565     1.29840
      1775 34698.39411     1.53639    68.87998    69.24748     1.29588
      1776 34726.15282     1.53762    67.26155    68.38900     1.31958
      1777 34753.93374     1.53885    65.88932    67.41857     1.34182
      1778 34781.73689     1.54008    66.90736    66.81257     1.32569
      1779 34809.56228     1.54132    67.82997    66.85972     1.31058
      1780 34837.40993     1.54255    68.70539    68.15619     1.29594
      1781 34865.27986     1.54378    71.88428    71.27737     1.24754
      1782 34893.17208     1.54502    77.38928    76.13676     1.17249
      1783 34921.08662     1.54625    80.31454    80.84476     1.13524
      1784 34949.02349     1.54749    82.84573    82.48097     1.10378
      1785 34976.98271     1.54873    81.88010    80.51431     1.11137
      1786 35004.96429     1.54997    78.44650    77.39459     1.14724
      1787 35032.96827     1.55121    75.98662    75.09699     1.17257
      1788 35060.99464     1.55245    76.00739    73.36785     1.16759
      1789 35089.04344     1.55369    72.93704    71.36441     1.20470
      1790 35117.11467     1.55493    68.96407    69.22918     1.25960
      1791 35145.20836     1.55618    69.26625    67.52272     1.25436
      1792 35173.32453     1.55742    66.77561    66.49482     1.29099
      1793 35201.46319     1.55867    66.06489    66.00083     1.30106
      1794 35229.62436     1.55992    66.43884    65.81563     1.29342
      1795 35257.80806     1.56116    65.12376    65.78255     1.31214
      1796 35286.01431     1.56241    66.24869    65.82061     1.29240
      1797 35314.24312     1.56366    65.88782    65.93511     1.29574
      1798 35342.49451     1.56491    65.23829    66.15760     1.30357
      1799 35370.76851     1.56617    65.81328    66.56200     1.29299
      1800 35399.06512     1.56742    65.47445    67.43908     1.29895
      1801 35427.38437     1.56867    69.19028    69.68252     1.24379
      1802 35455.72628     1.56993    73.97938    74.96771     1.17823
      1803 35484.09086     1.57118    86.27192    84.85720     1.03597
      1804 35512.47814     1.57244    99.72349    98.31177     0.91406
      1805 35540.88812     1.57370   113.21843   109.73969     0.81690
      1806 35569.32083     1.57496   114.38231   113.10079     0.80793
      1807 35597.77629     1.57622   110.66099   109.55894     0.83016
      1808 35626.25451     1.57748   101.76706   103.74400     0.89136
      1809 35654.75551     1.57874    94.64850    97.08560     0.94752
      1810 35683.27931     1.58001    89.18560    90.31186     0.99575
      1811 35711.82594     1.58127    83.83903    85.97929     1.04868
      1812 35740.39540     1.58253    87.00415    86.19562     1.01668
      1813 35768.98771     1.58380    91.53694    90.70209     0.97348
      1814 35797.60290     1.58507    99.14581    96.95436     0.90825
      1815 35826.24099     1.58634   103.13589   101.03498     0.87650
      1816 35854.90198     1.58760    98.52245    99.99336     0.90969
      1817 35883.58590     1.58887    94.78073    94.55509     0.93740
      1818 35912.29277     1.59015    88.98574    87.87484     0.98551
      1819 35941.02260     1.59142    85.69352    84.18535     1.01431
      1820 35969.77542     1.59269    89.34166    87.06320     0.97750
      1821 35998.55124     1.59397    99.50227    97.57498     0.89061
      1822 36027.35008     1.59524   116.43573   111.89277     0.77591
      1823 36056.17196     1.59652   123.07174   120.94110     0.73744
      1824 36085.01690     1.59779   117.98574   117.84362     0.76296
      1825 36113.88491     1.59907   103.90183   105.68458     0.84883
      1826 36142.77602     1.60035    90.74913    91.97462     0.94844
      1827 36171.69024     1.60163    79.19822    81.56472     1.05786
      1828 36200.62760     1.60291    74.31828    75.43763     1.11083
      1829 36229.58810     1.60420    71.13449    72.59361     1.14965
      1830 36258.57177     1.60548    72.64409    72.25088     1.13009
      1831 36287.57863     1.60676    74.39442    74.66973     1.10899
      1832 36316.60869     1.60805    82.33272    80.24726     1.01991
      1833 36345.66198     1.60934    88.14017    87.63403     0.96192
      1834 36374.73851     1.61062    89.11390    92.71977     0.95064
      1835 36403.83830     1.61191    90.33176    91.79542     0.93653
      1836 36432.96137     1.61320    84.60925    86.21057     0.98572
      1837 36462.10774     1.61449    80.61062    80.03810     1.02135
      1838 36491.27742     1.61578    73.82442    75.93152     1.09224
      1839 36520.47044     1.61708    72.77338    74.60970     1.09895
      1840 36549.68682     1.61837    76.50028    76.85112     1.04983
      1841 36578.92657     1.61967    86.14894    85.48912     0.94788
      1842 36608.18971     1.62096   105.66387   104.27788     0.79492
      1843 36637.47626     1.62226   134.54627   132.60741     0.64226
      1844 36666.78624     1.62356   159.39913   159.49622     0.55080
      1845 36696.11967     1.62485   162.88009   167.67766     0.53932
      1846 36725.47657     1.62615   150.10893   154.32913     0.58004
      1847 36754.85695     1.62746   133.31645   133.69917     0.64426
      1848 36784.26084     1.62876   118.05680   117.88896     0.71614
      1849 36813.68824     1.63006   107.64669   107.99084     0.77498
      1850 36843.13919     1.63136    98.13959    99.39386     0.83760
      1851 36872.61371     1.63267    92.02632    90.66991     0.88213
      1852 36902.11180     1.63398    83.76089    83.32735     0.95111
      1853 36931.63349     1.63528    80.13507    78.39941     0.98286
      1854 36961.17879     1.63659    76.23101    76.07708     1.02069
      1855 36990.74774     1.63790    76.35466    76.91587     1.01595
      1856 37020.34033     1.63921    84.24150    81.78087     0.93355
      1857 37049.95661     1.64052    91.78215    90.22602     0.86607
      1858 37079.59657     1.64184    99.24450    98.62663     0.80757
      1859 37109.26025     1.64315   101.98265   101.22497     0.78631
      1860 37138.94766     1.64446    93.97529    96.17589     0.84076
      1861 37168.65882     1.64578    84.61697    87.31592     0.91657
      1862 37198.39374     1.64710    77.49885    79.19361     0.98406
      1863 37228.15246     1.64841    72.27671    73.85142     1.03961
      1864 37257.93498     1.64973    71.12877    71.10709     1.04979
      1865 37287.74133     1.65105    69.25929    70.05942     1.06877
      1866 37317.57152     1.65237    68.35004    70.09416     1.07648
      1867 37347.42558     1.65370    69.23088    71.12090     1.06264
      1868 37377.30352     1.65502    71.76150    73.37922     1.02988
      1869 37407.20536     1.65634    77.14815    77.08424     0.96876
      1870 37437.13113     1.65767    84.07929    82.33298     0.90087
      1871 37467.08083     1.65899    90.03860    89.86159     0.84970
      1872 37497.05449     1.66032   103.53007   102.14066     0.75307
      1873 37527.05214     1.66165   120.25801   121.43744     0.65937
      1874 37557.07378     1.66298   144.04397   145.14384     0.55981
      1875 37587.11944     1.66431   162.81507   165.33298     0.49931
      1876 37617.18913     1.66564   172.40234   175.53873     0.47208
      1877 37647.28289     1.66697   173.91739   175.36596     0.46658
      1878 37677.40071     1.66831   170.31382   169.33072     0.47399
      1879 37707.54263     1.66964   165.76293   166.48378     0.48439
      1880 37737.70867     1.67098   182.36451   181.28598     0.44272
      1881 37767.89883     1.67231   226.07626   221.94649     0.36197
      1882 37798.11315     1.67365   272.77846   273.73688     0.30271
      1883 37828.35164     1.67499   296.13214   299.54125     0.27936
      1884 37858.61432     1.67633   275.85978   277.29245     0.29797
      1885 37888.90122     1.67767   226.95795   226.97799     0.35690
      1886 37919.21234     1.67901   181.79244   179.82545     0.43710
      1887 37949.54771     1.68036   149.05585   148.75604     0.52249
      1888 37979.90735     1.68170   129.27612   128.34442     0.59244
      1889 38010.29127     1.68305   110.35366   111.11387     0.67969
      1890 38040.69950     1.68439    94.68107    95.95657     0.77367
      1891 38071.13206     1.68574    83.38553    84.43917     0.85852
      1892 38101.58897     1.68709    75.36503    77.10829     0.92949
      1893 38132.07024     1.68844    69.97803    73.04936     0.98245
      1894 38162.57590     1.68979    68.79547    70.96144     0.99146
      1895 38193.10596     1.69114    68.41440    69.93296     0.99149
      1896 38223.66044     1.69250    67.28691    69.57964     1.00088
      1897 38254.23937     1.69385    69.59002    69.72815     0.97147
      1898 38284.84276     1.69521    68.84156    70.18314     0.97847
      1899 38315.47064     1.69656    69.74822    70.56669     0.96786
      1900 38346.12301     1.69792    67.88097    70.49534     0.98855
      1901 38376.79991     1.69928    69.02846    69.99257     0.97364
      1902 38407.50135     1.70064    68.09446    69.41738     0.98180
      1903 38438.22735     1.70200    68.86871    69.13525     0.96988
      1904 38468.97793     1.70336    67.82756    69.49654     0.97827
      1905 38499.75312     1.70472    69.62631    71.13790     0.95336
      1906 38530.55292     1.70609    76.18726    75.19541     0.88060
      1907 38561.37736     1.70745    83.69218    82.73457     0.80955
      1908 38592.22646     1.70882    93.83912    93.11574     0.73164
      1909 38623.10024     1.71018   100.92197   102.59949     0.68543
      1910 38653.99872     1.71155   107.49702   106.27440     0.64776
      1911 38684.92192     1.71292   104.22189   103.74702     0.66390
      1912 38715.86986     1.71429    99.90801    98.45994     0.68669
      1913 38746.84256     1.71566    91.33510    92.98646     0.73913
      1914 38777.84003     1.71704    88.87509    88.04461     0.75437
      1915 38808.86230     1.71841    85.27030    84.30610     0.77932
      1916 38839.90939     1.71979    85.68597    83.86447     0.77449
      1917 38870.98132     1.72116    91.28091    90.63667     0.73180
      1918 38902.07811     1.72254   109.26923   109.80800     0.62426
      1919 38933.19977     1.72392   147.05549   144.35789     0.47784
      1920 38964.34633     1.72530   188.99875   188.50289     0.37880
      1921 38995.51781     1.72668   219.48691   223.23786     0.32861
      1922 39026.71422     1.72806   225.23925   228.47075     0.31950
      1923 39057.93559     1.72944   205.77266   204.70712     0.34593
      1924 39089.18194     1.73082   173.09490   170.85398     0.40337
      1925 39120.45328     1.73221   147.32516   144.86447     0.46393
      1926 39151.74965     1.73359   133.55521   132.53650     0.50332
      1927 39183.07105     1.73498   124.42198   128.01602     0.53290
      1928 39214.41750     1.73637   118.09868   121.48866     0.55562
      1929 39245.78904     1.73776   107.09954   109.42050     0.60321
      1930 39277.18567     1.73915    95.87423    95.51793     0.66201
      1931 39308.60742     1.74054    85.82712    84.16232     0.72547
      1932 39340.05430     1.74193    77.53927    77.00083     0.78754
      1933 39371.52635     1.74333    74.71715    73.39879     0.81013
      1934 39403.02357     1.74472    72.19940    72.11955     0.83099
      1935 39434.54599     1.74612    72.56407    72.33632     0.82552
      1936 39466.09362     1.74751    73.96667    73.58982     0.81102
      1937 39497.66650     1.74891    75.33216    75.24818     0.79826
      1938 39529.26463     1.75031    75.75744    76.17682     0.79477
      1939 39560.88804     1.75171    75.53215    75.68390     0.79651
      1940 39592.53675     1.75311    75.31613    74.45042     0.79726
      1941 39624.21078     1.75452    75.51522    73.79942     0.79347
      1942 39655.91015     1.75592    76.13388    74.83874     0.78546
      1943 39687.63488     1.75732    82.00197    78.15159     0.73532
      1944 39719.38499     1.75873    90.59700    83.95532     0.67334
      1945 39751.16050     1.76014    96.89645    92.87989     0.63327
      1946 39782.96142     1.76155   110.94877   107.34880     0.56087
      1947 39814.78779     1.76296   135.74957   131.00263     0.46735
      1948 39846.63962     1.76437   163.91632   162.78986     0.39282
      1949 39878.51694     1.76578   189.01460   191.07003     0.34379
      1950 39910.41975     1.76719   196.69099   198.73099     0.33043
      1951 39942.34808     1.76860   175.32868   182.09316     0.36609
      1952 39974.30196     1.77002   151.23220   153.15279     0.41762
      1953 40006.28140     1.77144   126.57599   124.84915     0.48882
      1954 40038.28643     1.77285   104.00805   104.03304     0.57973
      1955 40070.31706     1.77427    94.01108    91.31181     0.63110
      1956 40102.37331     1.77569    83.97776    83.83362     0.69211
      1957 40134.45521     1.77711    79.66742    78.72527     0.72019
      1958 40166.56278     1.77853    76.10686    74.71563     0.74480
      1959 40198.69603     1.77996    73.14547    71.70752     0.76664
      1960 40230.85498     1.78138    70.87175    69.73002     0.78370
      1961 40263.03967     1.78280    71.97861    68.56763     0.76981
      1962 40295.25010     1.78423    70.20743    67.94526     0.77960
      1963 40327.48630     1.78566    68.17633    67.62244     0.79076
      1964 40359.74829     1.78709    68.51502    67.43214     0.78023
      1965 40392.03609     1.78852    67.34163    67.32301     0.78534
      1966 40424.34971     1.78995    65.12429    67.29652     0.80292
      1967 40456.68919     1.79138    68.89273    67.33656     0.76595
      1968 40489.05455     1.79281    70.40425    67.46773     0.75119
      1969 40521.44579     1.79425    69.33901    67.72127     0.75801
      1970 40553.86295     1.79568    68.02935    68.23840     0.76598
      1971 40586.30604     1.79712    71.04729    69.48549     0.73565
      1972 40618.77508     1.79856    73.91663    72.50260     0.70883
      1973 40651.27010     1.80000    79.82877    78.91396     0.66309
      1974 40683.79112     1.80144    92.56533    89.99693     0.58432
      1975 40716.33815     1.80288   107.83006   104.70956     0.51134
      1976 40748.91122     1.80432   121.73980   118.02131     0.45836
      1977 40781.51035     1.80576   123.48818   122.61332     0.45052
      1978 40814.13556     1.80721   113.34503   115.84988     0.48313
      1979 40846.78687     1.80866   100.18493   102.46445     0.53475
      1980 40879.46430     1.81010    89.08220    88.93081     0.58862
      1981 40912.16787     1.81155    79.49220    79.01210     0.64624
      1982 40944.89760     1.81300    73.82170    73.18027     0.68630
      1983 40977.65352     1.81445    69.71130    70.18558     0.71766
      1984 41010.43564     1.81590    70.27419    68.77658     0.71057
      1985 41043.24399     1.81735    69.72904    68.12481     0.71121
      1986 41076.07859     1.81881    67.23044    67.81771     0.72726
      1987 41108.93945     1.82026    67.49793    67.59938     0.72073
      1988 41141.82660     1.82172    69.79737    67.52566     0.69930
      1989 41174.74006     1.82318    65.94241    67.53740     0.73082
      1990 41207.67985     1.82464    65.41774    67.61189     0.73524
      1991 41240.64600     1.82610    66.37306    67.75535     0.72492
      1992 41273.63852     1.82756    67.19304    67.96977     0.71353
      1993 41306.65743     1.82902    68.84372    68.29703     0.69392
      1994 41339.70275     1.83048    68.57923    68.84092     0.68971
      1995 41372.77451     1.83195    68.23863    69.90380     0.68650
      1996 41405.87273     1.83341    73.13995    72.29436     0.64536
      1997 41438.99743     1.83488    77.60682    77.58893     0.61229
      1998 41472.14863     1.83635    88.72651    87.76420     0.54673
      1999 41505.32635     1.83782   105.35068   103.69742     0.47172
      2000 41538.53061     1.83929   120.17626   122.85022     0.41972
      2001 41571.76143     1.84076   136.02981   138.33926     0.37531
      2002 41605.01884     1.84223   143.26851   143.02513     0.35735
      2003 41638.30286     1.84371   138.27828   136.37381     0.36765
      2004 41671.61350     1.84518   126.15425   125.35932     0.39738
      2005 41704.95079     1.84666   116.55710   117.81323     0.42450
      2006 41738.31475     1.84813   117.78971   116.13322     0.41946
      2007 41771.70540     1.84961   119.90265   116.22913     0.41168
      2008 41805.12277     1.85109   112.39943   112.17017     0.43364
      2009 41838.56687     1.85257   103.75694   102.93625     0.46229
      2010 41872.03772     1.85406    94.53914    92.13068     0.49800
      2011 41905.53535     1.85554    85.07524    83.39533     0.54154
      2012 41939.05978     1.85702    80.00868    78.27698     0.56695
      2013 41972.61103     1.85851    75.16444    76.67804     0.59347
      2014 42006.18912     1.86000    77.79977    77.99469     0.57435
      2015 42039.79407     1.86149    83.47167    81.94896     0.53949
      2016 42073.42590     1.86297    88.37106    89.40093     0.51225
      2017 42107.08464     1.86447   104.12708   102.94856     0.44483
      2018 42140.77031     1.86596   126.01650   126.69218     0.37669
      2019 42174.48293     1.86745   162.30279   162.58304     0.30066
      2020 42208.22251     1.86894   200.96290   203.99099     0.24714
      2021 42241.98909     1.87044   228.77436   233.04109     0.21869
      2022 42275.78268     1.87194   223.48951   231.82086     0.22286
      2023 42309.60331     1.87343   196.09209   201.78076     0.25072
      2024 42343.45099     1.87493   156.50902   160.54414     0.30678
      2025 42377.32575     1.87643   122.12044   124.51284     0.38086
      2026 42411.22761     1.87793   100.90759   100.97447     0.44738
      2027 42445.15659     1.87944    90.68311    89.60502     0.48827
      2028 42479.11272     1.88094    92.01750    87.17239     0.48102
      2029 42513.09601     1.88244    90.81381    90.60722     0.48489
      2030 42547.10649     1.88395   100.51161    97.46651     0.44414
      2031 42581.14417     1.88546   107.35685   105.73787     0.41934
      2032 42615.20909     1.88697   116.89567   114.06038     0.38891
      2033 42649.30125     1.88848   121.52673   121.78369     0.37475
      2034 42683.42070     1.88999   130.86069   130.06145     0.34986
      2035 42717.56743     1.89150   144.14456   141.61920     0.31993
      2036 42751.74149     1.89301   162.24539   155.48375     0.28657
      2037 42785.94288     1.89453   171.24494   163.94213     0.27168
      2038 42820.17163     1.89604   163.44452   159.30908     0.28191
      2039 42854.42777     1.89756   145.29794   144.09595     0.31129
      2040 42888.71131     1.89908   128.34097   127.98373     0.34463
      2041 42923.02228     1.90060   117.90638   118.41934     0.36759
      2042 42957.36070     1.90212   114.80644   116.16996     0.37260
      2043 42991.72659     1.90364   113.15453   116.72819     0.37432
      2044 43026.11997     1.90516   109.92658   115.28806     0.38179
      2045 43060.54087     1.90669   106.75333   109.92859     0.39040
      2046 43094.98930     1.90821    99.37761   101.59648     0.41423
      2047 43129.46529     1.90974    93.21501    93.27812     0.43677
      2048 43163.96886     1.91127    89.30940    88.24835     0.45169
      2049 43198.50004     1.91280    91.36409    89.46222     0.44113
      2050 43233.05884     1.91433   106.13621    99.57994     0.38672
      2051 43267.64528     1.91586   122.53190   119.75461     0.34041
      2052 43302.25940     1.91739   153.30903   146.84751     0.27887
      2053 43336.90121     1.91893   166.57979   171.34203     0.25852
      2054 43371.57073     1.92046   174.27217   180.97938     0.24771
      2055 43406.26799     1.92200   171.04940   172.10970     0.25123
      2056 43440.99300     1.92354   151.09520   152.51030     0.27992
      2057 43475.74579     1.92507   131.02132   131.50530     0.31634
      2058 43510.52639     1.92662   119.15619   113.89579     0.34217
      2059 43545.33481     1.92816   106.86847   101.45800     0.37435
      2060 43580.17108     1.92970    98.66635    95.31321     0.40011
      2061 43615.03522     1.93124    95.10225    96.35565     0.41275
      2062 43649.92724     1.93279   103.15849   103.95720     0.38503
      2063 43684.84719     1.93433   113.02151   114.46222     0.35534
      2064 43719.79506     1.93588   123.47079   121.57484     0.32836
      2065 43754.77090     1.93743   119.11120   120.80984     0.33829
      2066 43789.77472     1.93898   116.30001   114.74841     0.34516
      2067 43824.80654     1.94053   112.30076   110.96103     0.35561
      2068 43859.86638     1.94209   118.64947   116.34004     0.33893
      2069 43894.95428     1.94364   141.20506   132.68175     0.29088
      2070 43930.07024     1.94519   162.80132   154.20624     0.25614
      2071 43965.21429     1.94675   169.76621   168.62727     0.24658
      2072 44000.38647     1.94831   166.30849   165.85708     0.25111
      2073 44035.58678     1.94987   149.56016   147.97217     0.27602
      2074 44070.81524     1.95143   125.94391   124.96326     0.32118
      2075 44106.07190     1.95299   109.52419   105.62697     0.36252
      2076 44141.35675     1.95455    97.22480    93.86936     0.40110
      2077 44176.66984     1.95611    91.41794    89.30372     0.42221
      2078 44212.01118     1.95768    86.86391    88.91075     0.44040
      2079 44247.38078     1.95925    86.24719    88.99595     0.44312
      2080 44282.77869     1.96081    85.56748    87.02949     0.44609
      2081 44318.20491     1.96238    83.04915    82.99096     0.45643
      2082 44353.65948     1.96395    79.48273    78.37521     0.47148
      2083 44389.14240     1.96552    75.69305    74.53694     0.48821
      2084 44424.65372     1.96710    67.76033    72.00206     0.53069
      2085 44460.19344     1.96867    69.17386    70.66594     0.52132
      2086 44495.76160     1.97025    68.81830    70.19057     0.52391
      2087 44531.35820     1.97182    72.30517    70.24580     0.50520
      2088 44566.98329     1.97340    71.48836    70.58244     0.51071
      2089 44602.63688     1.97498    71.51003    71.04888     0.51132
      2090 44638.31899     1.97656    72.71209    71.77264     0.50520
      2091 44674.02964     1.97814    73.50495    73.41744     0.50126
      2092 44709.76887     1.97972    78.15842    77.09240     0.47714
      2093 44745.53668     1.98131    82.83077    83.68692     0.45473
      2094 44781.33311     1.98289    89.05639    92.75320     0.42775
      2095 44817.15818     1.98448   102.41072   101.54921     0.37983
      2096 44853.01190     1.98607   102.05299   105.66689     0.38019
      2097 44888.89431     1.98766   102.99255   102.74485     0.37611
      2098 44924.80543     1.98925    91.24933    94.75104     0.41457
      2099 44960.74527     1.99084    82.38350    85.68666     0.44939
      2100 44996.71387     1.99243    77.28156    78.39829     0.47242
      2101 45032.71124     1.99402    72.02672    73.73995     0.49941
      2102 45068.73741     1.99562    66.68976    71.23581     0.53090
      2103 45104.79240     1.99722    68.80377    70.03243     0.51931
      2104 45140.87623     1.99881    68.85601    69.49498     0.52032
      2105 45176.98893     2.00041    67.92216    69.29219     0.52659
      2106 45213.13053     2.00201    67.41203    69.24937     0.52909
      2107 45249.30103     2.00362    70.19697    69.30207     0.51114
      2108 45285.50047     2.00522    68.41679    69.43455     0.52069
      2109 45321.72887     2.00682    66.41776    69.66604     0.53235
      2110 45357.98625     2.00843    69.48881    70.04391     0.51348
      2111 45394.27264     2.01004    70.80133    70.91067     0.50607
      2112 45430.58806     2.01164    73.27185    72.93703     0.49235
      2113 45466.93253     2.01325    78.56171    77.19342     0.46473
      2114 45503.30608     2.01486    87.68893    85.18409     0.42306
      2115 45539.70872     2.01648    96.03859    97.67620     0.39004
      2116 45576.14049     2.01809   110.82405   113.08255     0.34347
      2117 45612.60140     2.01970   125.98760   126.49151     0.30609
      2118 45649.09148     2.02132   127.91931   131.57643     0.30106
      2119 45685.61076     2.02294   120.47856   126.21513     0.31627
      2120 45722.15924     2.02456   113.77301   114.38708     0.33110
      2121 45758.73697     2.02618   101.57820   101.50309     0.36302
      2122 45795.34396     2.02780    88.40668    90.83408     0.40581
      2123 45831.98024     2.02942    82.20939    83.32144     0.42942
      2124 45868.64582     2.03104    77.27516    78.63809     0.45096
      2125 45905.34074     2.03267    76.93393    76.08120     0.45276
      2126 45942.06501     2.03429    73.02219    75.08955     0.47233
      2127 45978.81866     2.03592    77.18784    75.47004     0.45137
      2128 46015.60172     2.03755    78.78444    77.70548     0.44291
      2129 46052.41420     2.03918    81.86202    83.32727     0.42790
      2130 46089.25613     2.04081    95.43923    94.85619     0.37555
      2131 46126.12754     2.04245   117.32779   114.52993     0.31415
      2132 46163.02844     2.04408   147.11440   141.79112     0.25721
      2133 46199.95886     2.04572   177.31103   171.13907     0.21719
      2134 46236.91883     2.04735   200.14946   193.45164     0.19402
      2135 46273.90836     2.04899   204.53437   204.41653     0.18971
      2136 46310.92749     2.05063   213.85683   210.55813     0.18144
      2137 46347.97623     2.05227   220.25242   220.54368     0.17574
      2138 46385.05461     2.05391   232.35608   234.64984     0.16639
      2139 46422.16266     2.05556   238.73844   242.79796     0.16152
      2140 46459.30039     2.05720   222.14196   232.62002     0.17212
      2141 46496.46783     2.05885   198.61322   203.27693     0.19044
      2142 46533.66500     2.06049   163.24956   165.60575     0.22721
      2143 46570.89193     2.06214   133.17031   131.37406     0.27199
      2144 46608.14865     2.06379   110.71863   106.73670     0.31886
      2145 46645.43516     2.06544    96.54072    92.14713     0.35753
      2146 46682.75151     2.06710    90.44333    85.21686     0.37640
      2147 46720.09771     2.06875    90.43494    83.76630     0.37488
      2148 46757.47379     2.07041    91.44990    87.49916     0.36960
      2149 46794.87977     2.07206   101.31847    98.86161     0.33762
      2150 46832.31567     2.07372   125.03192   122.22041     0.28087
      2151 46869.78153     2.07538   164.49705   160.83455     0.21983
      2152 46907.27735     2.07704   217.58582   211.91250     0.17015
      2153 46944.80317     2.07870   258.45209   262.48329     0.14486
      2154 46982.35902     2.08036   285.92506   291.77947     0.13167
      2155 47019.94490     2.08203   277.20613   285.98130     0.13539
      2156 47057.56086     2.08370   244.24126   250.17981     0.15217
      2157 47095.20691     2.08536   199.21722   201.02238     0.18337
      2158 47132.88307     2.08703   155.71690   154.66095     0.22877
      2159 47170.58938     2.08870   126.56410   120.03153     0.27406
      2160 47208.32585     2.09037   103.18183    98.34117     0.32591
      2161 47246.09251     2.09204    89.37028    86.69101     0.36713
      2162 47283.88939     2.09372    83.78241    81.50050     0.38655
      2163 47321.71650     2.09539    78.34986    80.15344     0.40669
      2164 47359.57387     2.09707    81.22305    81.15880     0.39265
      2165 47397.46153     2.09875    84.41985    83.70332     0.37804
      2166 47435.37950     2.10043    87.26109    87.17997     0.36631
      2167 47473.32780     2.10211    87.63677    90.72679     0.36474
      2168 47511.30647     2.10379    92.52165    92.87951     0.34960
      2169 47549.31551     2.10547    90.84088    92.33533     0.35632
      2170 47587.35496     2.10716    86.17991    89.27791     0.37326
      2171 47625.42485     2.10884    86.50044    85.12741     0.37215
      2172 47663.52519     2.11053    78.96273    81.47702     0.39990
      2173 47701.65601     2.11222    80.59006    79.40845     0.39163
      2174 47739.81733     2.11391    79.55305    79.14556     0.39390
      2175 47778.00919     2.11560    79.57626    80.30308     0.39132
      2176 47816.23159     2.11729    78.02391    81.86323     0.39399
      2177 47854.48458     2.11899    80.76931    82.68132     0.37949
      2178 47892.76817     2.12068    76.39257    82.37544     0.39293
      2179 47931.08238     2.12238    79.32627    81.90029     0.37843
      2180 47969.42725     2.12408    82.63420    83.03563     0.36436
      2181 48007.80279     2.12578    88.59779    88.05580     0.34316
      2182 48046.20903     2.12748   102.90532    99.70631     0.30244
      2183 48084.64600     2.12918   126.55909   119.53551     0.25293
      2184 48123.11371     2.13088   151.80497   146.33671     0.21512
      2185 48161.61221     2.13259   180.65306   174.92404     0.18368
      2186 48200.14150     2.13430   200.59476   197.43540     0.16650
      2187 48238.70161     2.13600   210.74683   209.26811     0.15847
      2188 48277.29257     2.13771   221.68565   212.22270     0.15065
      2189 48315.91440     2.13942   214.06759   208.22366     0.15478
      2190 48354.56714     2.14113   196.19205   195.29384     0.16673
      2191 48393.25079     2.14285   170.31223   172.70373     0.18839
      2192 48431.96539     2.14456   146.04149   145.19803     0.21507
      2193 48470.71096     2.14628   117.33105   119.36807     0.25898
      2194 48509.48753     2.14800    97.98367    99.52749     0.30137
      2195 48548.29512     2.14971    83.33607    86.54885     0.34523
      2196 48587.13376     2.15143    75.33313    79.18813     0.37640
      2197 48626.00346     2.15316    73.30071    75.41128     0.38698
      2198 48664.90427     2.15488    72.92778    73.55251     0.38988
      2199 48703.83619     2.15660    70.11431    72.62141     0.40230
      2200 48742.79926     2.15833    69.97684    72.14461     0.40285
      2201 48781.79350     2.16005    70.62983    71.96931     0.39981
      2202 48820.81893     2.16178    72.72518    72.07719     0.39054
      2203 48859.87559     2.16351    72.30906    72.51452     0.39189
      2204 48898.96349     2.16524    70.62688    73.33192     0.39888
      2205 48938.08266     2.16698    73.62272    74.45540     0.38598
      2206 48977.23313     2.16871    74.82835    75.60309     0.38036
      2207 49016.41491     2.17045    74.66819    76.34010     0.37914
      2208 49055.62804     2.17218    74.16604    76.35860     0.37868
      2209 49094.87255     2.17392    70.29642    75.77849     0.39253
      2210 49134.14845     2.17566    71.69859    75.04873     0.38512
      2211 49173.45576     2.17740    72.56720    74.62567     0.38123
      2212 49212.79453     2.17914    77.26004    74.80994     0.36307
      2213 49252.16476     2.18089    72.54245    75.74365     0.38196
      2214 49291.56650     2.18263    77.26778    77.54476     0.36303
      2215 49330.99975     2.18438    83.93523    80.27090     0.33862
      2216 49370.46455     2.18613    91.70210    84.70999     0.31351
      2217 49409.96092     2.18787   101.29436    93.17057     0.28767
      2218 49449.48889     2.18962   116.04310   110.12033     0.25599
      2219 49489.04848     2.19138   149.30315   141.00454     0.20534
      2220 49528.63972     2.19313   193.08740   188.37427     0.16286
      2221 49568.26263     2.19488   245.90189   246.65441     0.13031
      2222 49607.91724     2.19664   293.27109   299.10718     0.11044
      2223 49647.60357     2.19840   315.72625   322.65498     0.10286
      2224 49687.32166     2.20016   297.00738   305.31772     0.10873
      2225 49727.07152     2.20192   251.96460   257.68668     0.12648
      2226 49766.85317     2.20368   201.85641   200.82596     0.15469
      2227 49806.66665     2.20544   151.33026   151.39790     0.19979
      2228 49846.51199     2.20721   123.10419   116.50727     0.23883
      2229 49886.38920     2.20897   101.32709    95.55422     0.28160
      2230 49926.29831     2.21074    89.21071    84.35253     0.31307
      2231 49966.23935     2.21251    81.74582    78.72311     0.33603
      2232 50006.21234     2.21428    80.19168    75.88814     0.34056
      2233 50046.21731     2.21605    77.12139    74.41628     0.34994
      2234 50086.25428     2.21783    73.50434    73.57842     0.36138
      2235 50126.32329     2.21960    72.05573    73.06934     0.36480
      2236 50166.42434     2.22138    72.34241    72.76916     0.36177
      2237 50206.55748     2.22315    72.72363    72.65244     0.35871
      2238 50246.72273     2.22493    68.44711    72.78457     0.37439
      2239 50286.92011     2.22671    70.97639    73.38961     0.36289
      2240 50327.14964     2.22849    76.31494    74.96476     0.34213
      2241 50367.41136     2.23028    75.02247    78.33286     0.34576
      2242 50407.70529     2.23206    82.44684    84.41650     0.31937
      2243 50448.03146     2.23385    91.66858    93.58505     0.29158
      2244 50488.38988     2.23563   100.45970   104.74709     0.26918
      2245 50528.78059     2.23742   109.21425   114.83296     0.25018
      2246 50569.20362     2.23921   115.59741   119.62188     0.23797
      2247 50609.65898     2.24101   110.16905   116.79396     0.24758
      2248 50650.14671     2.24280   100.01776   108.16686     0.26827
      2249 50690.66683     2.24459    93.57518    97.70783     0.28332
      2250 50731.21936     2.24639    87.82341    88.84729     0.29794
      2251 50771.80434     2.24819    85.72163    83.55868     0.30358
      2252 50812.42178     2.24999    84.23928    82.84840     0.30809
      2253 50853.07172     2.25179    90.02611    87.73941     0.29253
      2254 50893.75417     2.25359   102.76961    99.56423     0.26262
      2255 50934.46918     2.25539   118.49357   118.91017     0.23274
      2256 50975.21675     2.25719   144.60357   143.61090     0.19539
      2257 51015.99693     2.25900   162.87458   167.22891     0.17539
      2258 51056.80972     2.26081   173.72340   180.19720     0.16506
      2259 51097.65517     2.26262   165.52027   176.05669     0.17185
      2260 51138.53330     2.26443   152.89792   157.46930     0.18380
      2261 51179.44412     2.26624   129.72883   133.06594     0.21161
      2262 51220.38768     2.26805   110.83143   110.93906     0.24155
      2263 51261.36399     2.26987    98.58003    95.43113     0.26596
      2264 51302.37308     2.27168    88.97283    87.29495     0.28874
      2265 51343.41498     2.27350    89.72398    85.07865     0.28576
      2266 51384.48971     2.27532    88.90791    86.92314     0.28679
      2267 51425.59730     2.27714    92.00725    90.51682     0.27747
      2268 51466.73778     2.27896    96.27987    93.39138     0.26594
      2269 51507.91117     2.28079    93.81752    93.57086     0.27060
      2270 51549.11750     2.28261    88.91402    90.66559     0.28152
      2271 51590.35679     2.28444    85.93385    85.88790     0.28746
      2272 51631.62908     2.28627    78.48819    80.85964     0.30654
      2273 51672.93438     2.28810    74.99905    76.71327     0.31537
      2274 51714.27273     2.28993    72.23228    73.85449     0.32346
      2275 51755.64415     2.29176    70.89761    72.15119     0.32795
      2276 51797.04866     2.29359    66.45427    71.24300     0.34517
      2277 51838.48630     2.29543    70.87698    70.79397     0.32898
      2278 51879.95709     2.29726    71.67066    70.58506     0.32659
      2279 51921.46106     2.29910    71.87512    70.50823     0.32603
      2280 51962.99822     2.30094    72.28478    70.53343     0.32398
      2281 52004.56862     2.30278    69.65221    70.70162     0.33189
      2282 52046.17228     2.30462    71.32045    71.15060     0.32346
      2283 52087.80922     2.30647    69.67470    72.15479     0.32662
      2284 52129.47946     2.30831    76.32314    74.14545     0.30152
      2285 52171.18305     2.31016    76.87632    77.47426     0.29714
      2286 52212.91999     2.31201    80.89678    82.14186     0.28354
      2287 52254.69033     2.31386    83.37583    87.48137     0.27596
      2288 52296.49408     2.31571    88.67415    92.01617     0.26237
      2289 52338.33128     2.31756    90.28646    93.96579     0.25845
      2290 52380.20194     2.31942    92.62485    92.72371     0.25298
      2291 52422.10610     2.32127    86.93451    89.46663     0.26635
      2292 52464.04379     2.32313    87.72368    86.11960     0.26447
      2293 52506.01502     2.32499    83.91707    84.07931     0.27401
      2294 52548.01983     2.32685    87.28941    83.60288     0.26520
      2295 52590.05825     2.32871    83.81825    83.85871     0.27355
      2296 52632.13030     2.33058    89.52195    83.58325     0.25840
      2297 52674.23600     2.33244    84.77569    82.14035     0.26868
      2298 52716.37539     2.33431    82.28765    79.82380     0.27330
      2299 52758.54849     2.33617    79.07587    77.36597     0.28008
      2300 52800.75533     2.33804    77.22632    75.55568     0.28348
      2301 52842.99593     2.33991    76.82583    74.90927     0.28296
      2302 52885.27033     2.34179    75.60695    76.04513     0.28498
      2303 52927.57855     2.34366    79.00801    79.67880     0.27416
      2304 52969.92061     2.34554    83.71407    86.56885     0.26104
      2305 53012.29655     2.34741    95.82035    97.02047     0.23361
      2306 53054.70638     2.34929   108.24601   110.05913     0.21101
      2307 53097.15015     2.35117   122.23590   122.87709     0.19013
      2308 53139.62787     2.35305   126.78312   131.26358     0.18377
      2309 53182.13957     2.35493   127.24236   131.94170     0.18258
      2310 53224.68528     2.35682   123.92292   125.24529     0.18615
      2311 53267.26503     2.35870   112.38866   114.37128     0.20189
      2312 53309.87884     2.36059   102.10247   102.71686     0.21887
      2313 53352.52675     2.36248    91.01443    92.53245     0.24101
      2314 53395.20877     2.36437    81.73915    84.89572     0.26355
      2315 53437.92493     2.36626    79.60147    79.94994     0.27019
      2316 53480.67527     2.36816    79.80769    77.41487     0.27042
      2317 53523.45981     2.37005    78.96737    76.96095     0.27254
      2318 53566.27858     2.37195    80.59225    78.28776     0.26653
      2319 53609.13161     2.37385    77.38133    80.97207     0.27281
      2320 53652.01891     2.37574    83.90314    84.27086     0.25331
      2321 53694.94053     2.37765    81.50403    87.09203     0.25726
      2322 53737.89648     2.37955    83.84742    88.42409     0.25011
      2323 53780.88680     2.38145    85.86268    88.26533     0.24414
      2324 53823.91150     2.38336    83.54572    88.07068     0.24825
      2325 53866.97063     2.38526    84.90773    90.22551     0.24413
      2326 53910.06421     2.38717   100.06603    97.14239     0.21332
      2327 53953.19226     2.38908   111.77892   110.18762     0.19451
      2328 53996.35482     2.39100   127.05424   128.46425     0.17487
      2329 54039.55190     2.39291   143.42933   147.91200     0.15782
      2330 54082.78354     2.39482   159.83753   161.70784     0.14347
      2331 54126.04977     2.39674   152.47236   163.51561     0.14918
      2332 54169.35061     2.39866   146.59919   152.62827     0.15367
      2333 54212.68609     2.40058   128.60122   134.35447     0.17121
      2334 54256.05624     2.40250   110.62725   115.10232     0.19381
      2335 54299.46108     2.40442    98.16651    99.54145     0.21377
      2336 54342.90065     2.40634    90.85215    89.69191     0.22754
      2337 54386.37497     2.40827    92.16431    85.76572     0.22457
      2338 54429.88407     2.41020    93.37057    87.67356     0.22191
      2339 54473.42798     2.41212   101.62619    96.00138     0.20644
      2340 54517.00672     2.41405   120.93956   111.91130     0.17762
      2341 54560.62033     2.41599   139.46268   135.81324     0.15635
      2342 54604.26882     2.41792   164.23660   165.46574     0.13467
      2343 54647.95224     2.41985   194.62487   194.66261     0.11501
      2344 54691.67060     2.42179   207.69860   213.75673     0.10783
      2345 54735.42394     2.42373   201.19738   214.36603     0.11048
      2346 54779.21227     2.42567   185.54215   196.33548     0.11850
      2347 54823.03564     2.42761   161.65123   167.52560     0.13372
      2348 54866.89407     2.42955   136.66433   137.39731     0.15462
      2349 54910.78759     2.43149   116.57821   112.46628     0.17689
      2350 54954.71622     2.43344    97.25654    95.13479     0.20558
      2351 54998.67999     2.43539    87.26940    84.66649     0.22471
      2352 55042.67894     2.43734    81.32878    78.95853     0.23776
      2353 55086.71308     2.43929    76.94562    75.96826     0.24769
      2354 55130.78245     2.44124    75.61983    74.35085     0.24961
      2355 55174.88708     2.44319    73.52062    73.40712     0.25315
      2356 55219.02698     2.44515    74.37716    72.84393     0.24897
      2357 55263.20221     2.44710    76.04629    72.53724     0.24349
      2358 55307.41277     2.44906    74.16733    72.42327     0.24821
      2359 55351.65870     2.45102    74.15565    72.43244     0.24887
      2360 55395.94003     2.45298    72.72851    72.48210     0.25315
      2361 55440.25678     2.45494    74.61990    72.50107     0.24799
      2362 55484.60898     2.45691    70.97493    72.47329     0.25704
      2363 55528.99667     2.45887    73.79657    72.44992     0.24744
      2364 55573.41987     2.46084    74.60685    72.52707     0.24293
      2365 55617.87860     2.46281    72.76404    72.93327     0.24567
      2366 55662.37291     2.46478    73.29511    73.80353     0.24334
      2367 55706.90280     2.46675    72.60248    75.37815     0.24467
      2368 55751.46833     2.46873    81.09612    78.07274     0.22357
      2369 55796.06950     2.47070    86.39812    82.21611     0.21139
      2370 55840.70636     2.47268    85.36387    87.79070     0.21252
      2371 55885.37892     2.47466    92.39473    94.25700     0.19882
      2372 55930.08723     2.47664   100.33987   100.68081     0.18536
      2373 55974.83129     2.47862   108.73098   106.50287     0.17285
      2374 56019.61116     2.48060   112.41693   113.02331     0.16783
      2375 56064.42685     2.48259   129.46055   124.05428     0.14905
      2376 56109.27839     2.48457   150.28831   144.54930     0.13120
      2377 56154.16581     2.48656   181.99408   177.31425     0.11078
      2378 56199.08915     2.48855   219.04040   219.97946     0.09359
      2379 56244.04842     2.49054   258.18223   263.24313     0.08033
      2380 56289.04366     2.49254   276.21660   292.22021     0.07533
      2381 56334.07489     2.49453   273.10870   293.83204     0.07605
      2382 56379.14215     2.49653   247.60556   267.21932     0.08326
      2383 56424.24546     2.49852   217.71793   223.66640     0.09376
      2384 56469.38486     2.50052   170.99220   177.27103     0.11679
      2385 56514.56037     2.50252   141.64773   138.10350     0.13811
      2386 56559.77202     2.50453   119.97913   110.25214     0.15948
      2387 56605.01983     2.50653    96.89004    93.04518     0.19073
      2388 56650.30385     2.50854    89.73075    83.56564     0.20260
      2389 56695.62409     2.51054    80.82456    78.75668     0.21962
      2390 56740.98059     2.51255    79.04480    76.33704     0.22283
      2391 56786.37338     2.51456    73.67492    75.17266     0.23454
      2392 56831.80248     2.51658    78.69391    74.68661     0.22196
      2393 56877.26792     2.51859    76.54639    74.69025     0.22622
      2394 56922.76973     2.52060    75.87141    75.31045     0.22731
      2395 56968.30795     2.52262    74.97585    76.95138     0.22860
      2396 57013.88259     2.52464    81.30194    80.27046     0.21382
      2397 57059.49370     2.52666    81.86796    86.01547     0.21182
      2398 57105.14130     2.52868    90.76318    94.63704     0.19462
      2399 57150.82541     2.53070    99.51747   105.75497     0.18048
      2400 57196.54607     2.53273   112.96122   117.72802     0.16271
      2401 57242.30331     2.53476   126.16429   127.68246     0.14836
      2402 57288.09715     2.53678   125.59846   132.57838     0.14888
      2403 57333.92763     2.53881   125.69887   131.23377     0.14861
      2404 57379.79477     2.54085   122.41209   125.03965     0.15173
      2405 57425.69860     2.54288   118.25677   116.72329     0.15590
      2406 57471.63916     2.54491   116.98400   109.41492     0.15699
      2407 57517.61647     2.54695   115.49417   106.54580     0.15836
      2408 57563.63057     2.54899   118.32868   111.84800     0.15464
      2409 57609.68147     2.55103   135.28910   129.10068     0.13730
      2410 57655.76922     2.55307   168.22328   160.99449     0.11291
      2411 57701.89383     2.55511   210.28533   206.89988     0.09206
      2412 57748.05535     2.55716   267.10927   260.44331     0.07378
      2413 57794.25379     2.55920   304.88066   308.59101     0.06519
      2414 57840.48919     2.56125   327.50144   334.65829     0.06093
      2415 57886.76159     2.56330   316.60566   327.67464     0.06282
      2416 57933.07100     2.56535   284.76499   291.04939     0.06928
      2417 57979.41745     2.56740   242.87732   238.91538     0.08019
      2418 58025.80099     2.56946   187.07187   186.28687     0.10159
      2419 58072.22163     2.57151   152.83395   143.04151     0.12152
      2420 58118.67940     2.57357   123.86788   112.69556     0.14577
      2421 58165.17435     2.57563   107.21508    93.99103     0.16463
      2422 58211.70649     2.57769    91.07052    83.58330     0.18793
      2423 58258.27585     2.57975    83.80314    78.15364     0.19973
      2424 58304.88247     2.58182    75.24778    75.34086     0.21565
      2425 58351.52638     2.58388    77.70487    73.78519     0.20913
      2426 58398.20760     2.58595    73.60360    72.75790     0.21775
      2427 58444.92617     2.58802    72.44284    71.95269     0.22090
      2428 58491.68211     2.59009    77.39096    71.40829     0.21037
      2429 58538.47545     2.59216    71.31737    70.98882     0.22418
      2430 58585.30623     2.59424    74.18351    70.64804     0.21708
      2431 58632.17448     2.59631    74.78787    70.36443     0.21529
      2432 58679.08022     2.59839    74.51768    70.12515     0.21552
      2433 58726.02348     2.60047    72.33235    69.92123     0.22044
      2434 58773.00430     2.60255    72.53343    69.74598     0.21984
      2435 58820.02270     2.60463    71.67237    69.59433     0.22123
      2436 58867.07872     2.60672    69.58013    69.48170     0.22536
      2437 58914.17239     2.60880    71.46772    69.39541     0.21964
      2438 58961.30372     2.61089    67.78686    69.30346     0.22737
      2439 59008.47277     2.61298    71.95524    69.21824     0.21580
      2440 59055.67954     2.61507    69.39873    69.14231     0.22049
      2441 59102.92409     2.61716    65.93379    69.07538     0.22826
      2442 59150.20643     2.61926    70.51920    69.01674     0.21692
      2443 59197.52659     2.62135    66.37895    68.96573     0.22763
      2444 59244.88461     2.62345    70.60203    68.92189     0.21829
      2445 59292.28052     2.62555    68.15123    68.88501     0.22550
      2446 59339.71435     2.62765    68.74483    68.85523     0.22515
      2447 59387.18612     2.62975    71.86137    68.83348     0.21791
      2448 59434.69587     2.63186    70.87485    68.82259     0.21941
      2449 59482.24362     2.63396    67.66935    68.79378     0.22542
      2450 59529.82942     2.63607    70.54549    68.82793     0.21607
      2451 59577.45328     2.63818    66.47544    68.94295     0.22383
      2452 59625.11524     2.64029    70.56298    69.18624     0.21264
      2453 59672.81534     2.64241    69.02188    69.65507     0.21537
      2454 59720.55359     2.64452    70.35869    70.43008     0.21168
      2455 59768.33003     2.64664    69.74670    71.53961     0.21270
      2456 59816.14470     2.64875    72.33919    72.92029     0.20664
      2457 59863.99761     2.65087    69.37035    74.31212     0.21311
      2458 59911.88881     2.65299    75.40944    75.30440     0.19986
      2459 59959.81832     2.65512    70.95772    75.55477     0.20951
      2460 60007.78617     2.65724    71.09213    74.97189     0.20976
      2461 60055.79240     2.65937    70.53891    73.67521     0.21176
      2462 60103.83704     2.66150    69.58800    72.19131     0.21458
      2463 60151.92011     2.66363    68.01412    70.91009     0.21866
      2464 60200.04164     2.66576    72.39169    69.93706     0.20812
      2465 60248.20168     2.66789    71.21037    69.52264     0.20981
      2466 60296.40024     2.67002    70.22978    69.27856     0.20988
      2467 60344.63736     2.67216    70.28926    69.13413     0.20721
      2468 60392.91307     2.67430    67.33938    69.08306     0.21200
      2469 60441.22740     2.67644    63.68842    69.08950     0.21977
      2470 60489.58038     2.67858    67.04070    69.13034     0.21081
      2471 60537.97204     2.68072    69.14935    69.19475     0.20521
      2472 60586.40242     2.68287    70.08380    69.27979     0.20215
      2473 60634.87154     2.68502    70.10218    69.38714     0.20071
      2474 60683.37944     2.68716    69.09875    69.52312     0.20168
      2475 60731.92615     2.68931    64.57504    69.70987     0.21114
      2476 60780.51169     2.69147    73.96898    69.97559     0.19011
      2477 60829.13610     2.69362    69.38955    70.40694     0.19830
      2478 60877.79940     2.69578    67.90933    71.19430     0.20025
      2479 60926.50164     2.69793    73.49122    72.68985     0.18800
      2480 60975.24285     2.70009    73.91676    75.44512     0.18694
      2481 61024.02304     2.70225    77.76318    80.13928     0.18015
      2482 61072.84226     2.70441    85.79239    87.32144     0.16730
      2483 61121.70053     2.70658    92.40719    96.98042     0.15801
      2484 61170.59789     2.70874    98.77974   108.10733     0.14974
      2485 61219.53437     2.71091   112.51077   118.50657     0.13417
      2486 61268.51000     2.71308   115.17746   125.18381     0.13092
      2487 61317.52481     2.71525   117.39317   125.73815     0.12822
      2488 61366.57883     2.71742   112.05706   120.07161     0.13289
      2489 61415.67209     2.71960   109.54908   110.37346     0.13558
      2490 61464.80463     2.72178    93.98263    99.54963     0.15446
      2491 61513.97647     2.72395    90.75420    89.88962     0.15967
      2492 61563.18765     2.72613    78.39800    82.57597     0.18006
      2493 61612.43820     2.72831    78.01275    77.76925     0.18087
      2494 61661.72815     2.73050    75.74015    75.00972     0.18484
      2495 61711.05753     2.73268    78.32323    73.65423     0.17923
      2496 61760.42638     2.73487    76.42359    73.16224     0.18111
      2497 61809.83472     2.73706    72.82924    73.20694     0.18571
      2498 61859.28259     2.73925    75.30421    73.68775     0.17909
      2499 61908.77002     2.74144    74.77199    74.72928     0.17863
      2500 61958.29703     2.74363    74.48392    76.69297     0.17817
      2501 62007.86367     2.74583    77.35423    80.17637     0.17279
      2502 62057.46996     2.74803    85.36829    85.90745     0.16000
      2503 62107.11594     2.75022    91.74800    94.46152     0.15105
      2504 62156.80163     2.75243   107.84235   105.83671     0.13251
      2505 62206.52707     2.75463   118.88405   119.07939     0.12210
      2506 62256.29229     2.75683   126.15118   132.24485     0.11591
      2507 62306.09733     2.75904   143.88890   143.03954     0.10335
      2508 62355.94220     2.76125   151.87692   150.60581     0.09846
      2509 62405.82696     2.76346   157.52592   157.65800     0.09522
      2510 62455.75162     2.76567   172.27765   170.47793     0.08781
      2511 62505.71622     2.76788   198.26480   196.28950     0.07725
      2512 62555.72079     2.77009   252.91417   239.71602     0.06182
      2513 62605.76537     2.77231   300.10265   299.42505     0.05274
      2514 62655.84998     2.77453   364.86527   366.03358     0.04389
      2515 62705.97466     2.77675   419.07462   422.55871     0.03845
      2516 62756.13944     2.77897   430.19460   449.45211     0.03742
      2517 62806.34435     2.78120   430.97415   435.50451     0.03727
      2518 62856.58943     2.78342   384.11545   385.85257     0.04149
      2519 62906.87470     2.78565   318.26328   317.07090     0.04944
      2520 62957.20020     2.78788   260.31432   246.86904     0.05952
      2521 63007.56596     2.79011   200.62676   187.69789     0.07538
      2522 63057.97201     2.79234   160.14968   144.92653     0.09191
      2523 63108.41839     2.79457   135.56727   118.01976     0.10591
      2524 63158.90513     2.79681   109.63643   103.13162     0.12651
      2525 63209.43225     2.79905    99.67723    95.58750     0.13667
      2526 63259.99980     2.80129   101.78526    91.45720     0.13406
      2527 63310.60780     2.80353    91.91318    88.27328     0.14510
      2528 63361.25628     2.80577    92.11776    85.05902     0.14393
      2529 63411.94529     2.80802    82.36897    81.78995     0.15591
      2530 63462.67484     2.81027    79.77631    78.77386     0.15851
      2531 63513.44498     2.81251    73.87265    76.28532     0.16717
      2532 63564.25574     2.81477    73.16149    74.43604     0.16805
      2533 63615.10714     2.81702    68.45754    73.18937     0.17675
      2534 63665.99923     2.81927    72.91899    72.43817     0.16907
      2535 63716.93203     2.82153    72.76064    72.05288     0.16977
      2536 63767.90557     2.82379    78.04845    72.04161     0.16091
      2537 63818.91990     2.82604    73.21544    72.38372     0.16880
      2538 63869.97503     2.82831    71.73304    73.05788     0.17106
      2539 63921.07101     2.83057    78.29824    73.99161     0.15929
      2540 63972.20787     2.83283    84.30637    75.01479     0.14949
      2541 64023.38564     2.83510    79.77239    75.85619     0.15534
      2542 64074.60435     2.83737    78.16942    76.21235     0.15729
      2543 64125.86403     2.83964    78.65965    75.90888     0.15616
      2544 64177.16472     2.84191    82.30839    75.02445     0.15061
      2545 64228.50645     2.84419    80.57112    73.82070     0.15320
      2546 64279.88926     2.84646    74.56217    72.58298     0.16243
      2547 64331.31317     2.84874    79.19247    71.51829     0.15415
      2548 64382.77822     2.85102    73.42633    70.72414     0.16196
      2549 64434.28444     2.85330    68.15810    70.20399     0.16977
      2550 64485.83187     2.85558    67.88305    69.90518     0.16884
      2551 64537.42053     2.85787    69.87131    69.76857     0.16425
      2552 64589.05047     2.86016    71.79974    69.71102     0.16065
      2553 64640.72171     2.86245    70.22310    69.67884     0.16351
      2554 64692.43429     2.86474    69.05437    69.63989     0.16553
      2555 64744.18824     2.86703    66.82064    69.57849     0.16913
      2556 64795.98359     2.86932    66.56643    69.49753     0.16931
      2557 64847.82037     2.87162    65.39986    69.36874     0.17167
      2558 64899.69863     2.87392    71.69267    69.27240     0.16052
      2559 64951.61839     2.87622    67.99701    69.20363     0.16684
      2560 65003.57968     2.87852    65.91418    69.15435     0.17063
      2561 65055.58255     2.88082    67.44922    69.12108     0.16792
      2562 65107.62701     2.88313    62.62489    69.09993     0.17778
      2563 65159.71312     2.88543    73.39253    69.08713     0.15830
      2564 65211.84089     2.88774    69.51232    69.07981     0.16538
      2565 65264.01036     2.89005    71.05109    68.97471     0.16261
      2566 65316.22157     2.89237    67.43101    68.76806     0.16872
      2567 65368.47454     2.89468    70.72253    68.73801     0.16224
      2568 65420.76932     2.89700    70.00618    68.74396     0.16300
      2569 65473.10594     2.89931    67.55209    68.75885     0.16700
      2570 65525.48442     2.90163    70.20026    68.77621     0.16201
      2571 65577.90481     2.90396    70.67434    68.79483     0.16112
      2572 65630.36714     2.90628    68.59857    68.81417     0.16457
      2573 65682.87143     2.90861    66.11415    68.83584     0.16879
      2574 65735.41773     2.91093    70.12130    68.85764     0.16122
      2575 65788.00606     2.91326    69.28768    68.87501     0.16251
      2576 65840.63647     2.91559    68.30365    68.89177     0.16382
      2577 65893.30897     2.91793    71.05396    68.91431     0.15843
      2578 65946.02362     2.92026    70.48246    68.93857     0.15889
      2579 65998.78044     2.92260    73.91125    68.96394     0.15265
      2580 66051.57946     2.92494    73.22040    68.99037     0.15301
      2581 66104.42073     2.92728    70.42067    69.01794     0.15688
      2582 66157.30426     2.92962    72.57925    69.04677     0.15253
      2583 66210.23011     2.93196    71.15592    69.07704     0.15407
      2584 66263.19829     2.93431    74.22058    69.10894     0.14813
      2585 66316.20885     2.93666    70.18255    69.14277     0.15362
      2586 66369.26182     2.93901    67.60695    69.29664     0.15726
      2587 66422.35723     2.94136    70.38798    69.42445     0.15189
      2588 66475.49511     2.94371    68.69663    69.48995     0.15398
      2589 66528.67551     2.94607    72.88459    69.54813     0.14638
      2590 66581.89845     2.94843    70.18954    69.60932     0.14942
      2591 66635.16397     2.95079    68.89353    69.67745     0.15026
      2592 66688.47210     2.95315    65.98917    69.75511     0.15409
      2593 66741.82288     2.95551    69.51260    69.85101     0.14804
      2594 66795.21634     2.95788    69.33724    69.98861     0.14878
      2595 66848.65251     2.96024    70.85036    70.20528     0.14732
      2596 66902.13143     2.96261    73.53421    70.57617     0.14438
      2597 66955.65314     2.96498    73.99733    71.22708     0.14502
      2598 67009.21766     2.96735    71.29247    72.33496     0.15033
      2599 67062.82503     2.96973    72.76772    74.09626     0.14793
      2600 67116.47529     2.97211    80.31256    76.64997     0.13591
      2601 67170.16847     2.97448    78.61071    79.96633     0.13663
      2602 67223.90461     2.97686    83.66506    83.74288     0.12810
      2603 67277.68373     2.97925    80.89233    87.36237     0.12937
      2604 67331.50588     2.98163    79.83261    89.97309     0.12879
      2605 67385.37108     2.98402    74.65094    90.78924     0.13391
      2606 67439.27938     2.98640    80.83028    89.55646     0.12544
      2607 67493.23080     2.98879    77.68490    86.72504     0.12918
      2608 67547.22539     2.99119    72.22523    83.12289     0.13686
      2609 67601.26317     2.99358    71.12085    79.54317     0.13941
      2610 67655.34418     2.99597    72.21951    76.52253     0.13912
      2611 67709.46845     2.99837    75.39243    74.28975     0.13567
      2612 67763.63603     3.00077    69.24291    72.82412     0.14511
      2613 67817.84694     3.00317    71.12963    71.96612     0.14160
      2614 67872.10122     3.00558    72.29042    71.52240     0.13894
      2615 67926.39890     3.00798    70.32667    71.33064     0.14153
      2616 67980.74002     3.01039    74.62935    71.68950     0.13563
      2617 68035.12461     3.01280    68.81467    71.96921     0.14482
      2618 68089.55271     3.01521    66.87238    72.12285     0.14849
      2619 68144.02435     3.01762    69.44149    72.29567     0.14456
      2620 68198.53957     3.02004    68.66037    72.52458     0.14571
      2621 68253.09840     3.02245    67.88294    72.83720     0.14660
      2622 68307.70088     3.02487    70.31690    73.26172     0.14183
      2623 68362.34704     3.02729    72.47396    73.82028     0.13745
      2624 68417.03692     3.02971    72.11074    74.51631     0.13708
      2625 68471.77055     3.03214    75.48449    75.32285     0.13185
      2626 68526.54796     3.03456    74.33231    76.17878     0.13300
      2627 68581.36920     3.03699    75.44528    77.00139     0.13114
      2628 68636.23430     3.03942    73.60853    77.73083     0.13289
      2629 68691.14328     3.04186    78.50075    78.41731     0.12535
      2630 68746.09620     3.04429    76.46043    79.31726     0.12669
      2631 68801.09308     3.04673    76.53461    80.97191     0.12574
      2632 68856.13395     3.04916    84.92694    84.30170     0.11573
      2633 68911.21886     3.05160    87.95047    90.70234     0.11246
      2634 68966.34783     3.05405   100.02814   102.01639     0.10156
      2635 69021.52091     3.05649   119.76810   120.20024     0.08758
      2636 69076.73813     3.05894   144.15563   146.57507     0.07473
      2637 69131.99952     3.06138   177.23469   180.77348     0.06226
      2638 69187.30512     3.06383   214.65532   219.76910     0.05237
      2639 69242.65496     3.06628   250.62142   257.48348     0.04542
      2640 69298.04909     3.06874   279.78914   285.48615     0.04097
      2641 69353.48753     3.07119   288.15780   295.67506     0.03979
      2642 69408.97032     3.07365   273.09327   284.78753     0.04173
      2643 69464.49749     3.07611   243.20387   256.60854     0.04629
      2644 69520.06909     3.07857   214.02109   219.18830     0.05178
      2645 69575.68514     3.08104   179.55453   180.71811     0.06025
      2646 69631.34569     3.08350   147.14655   147.11634     0.07128
      2647 69687.05077     3.08597   123.58120   121.29409     0.08224
      2648 69742.80041     3.08844   110.81521   103.53315     0.08971
      2649 69798.59465     3.09091    98.35298    92.47725     0.09871
      2650 69854.43353     3.09338    91.24240    86.19451     0.10483
      2651 69910.31707     3.09586    83.04437    82.91899     0.11278
      2652 69966.24533     3.09834    86.64639    81.36978     0.10870
      2653 70022.21832     3.10082    77.65537    80.76083     0.11767
      2654 70078.23610     3.10330    77.00071    80.67292     0.11740
      2655 70134.29869     3.10578    75.64326    80.91178     0.11799
      2656 70190.40613     3.10827    74.89433    81.40302     0.11807
      2657 70246.55845     3.11075    81.88771    82.14116     0.10987
      2658 70302.75570     3.11324    79.90946    83.20948     0.11148
      2659 70358.99790     3.11573    76.85214    84.76720     0.11410
      2660 70415.28510     3.11823    83.40242    87.19569     0.10621
      2661 70471.61733     3.12072    87.78358    91.31246     0.10116
      2662 70527.99462     3.12322    89.92628    98.71739     0.09844
      2663 70584.41702     3.12572   107.34697   112.21389     0.08492
      2664 70640.88455     3.12822   139.50533   136.09232     0.06808
      2665 70697.39726     3.13072   179.12680   175.87664     0.05476
      2666 70753.95518     3.13323   237.21177   237.08123     0.04253
      2667 70810.55834     3.13574   332.39138   322.94981     0.03108
      2668 70867.20679     3.13825   450.00377   430.98743     0.02326
      2669 70923.90055     3.14076   600.16123   550.82969     0.01757
      2670 70980.63967     3.14327   695.47125   663.47550     0.01515
      2671 71037.42419     3.14579   796.83244   743.92164     0.01321
      2672 71094.25412     3.14830   799.65669   769.38539     0.01309
      2673 71151.12953     3.15082   768.09771   731.94666     0.01355
      2674 71208.05043     3.15334   653.27220   643.69573     0.01578
      2675 71265.01687     3.15587   540.35889   528.38193     0.01887
      2676 71322.02889     3.15839   445.34962   409.92836     0.02264
      2677 71379.08651     3.16092   323.26175   305.73479     0.03056
      2678 71436.18978     3.16345   250.61031   224.58722     0.03857
      2679 71493.33873     3.16598   179.66844   167.63853     0.05186
      2680 71550.53340     3.16851   154.56589   131.13602     0.05871
      2681 71607.77383     3.17105   119.69788   109.43568     0.07225
      2682 71665.06005     3.17359   105.06150    97.20596     0.07956
      2683 71722.39209     3.17613    98.57555    90.59727     0.08289
      2684 71779.77001     3.17867    95.44758    86.90989     0.08413
      2685 71837.19382     3.18121    81.17194    84.63038     0.09450
      2686 71894.66358     3.18376    82.32135    83.05786     0.09303
      2687 71952.17931     3.18631    79.37647    81.88977     0.09533
      2688 72009.74105     3.18886    81.97607    80.97408     0.09276
      2689 72067.34885     3.19141    75.69539    80.23457     0.09825
      2690 72125.00273     3.19396    82.34350    79.62918     0.09215
      2691 72182.70273     3.19652    80.45888    79.13123     0.09367
      2692 72240.44889     3.19907    78.28690    78.72194     0.09551
      2693 72298.24125     3.20163    78.26463    78.36098     0.09544
      2694 72356.07984     3.20420    79.94316    77.94400     0.09382
      2695 72413.96471     3.20676    75.46333    77.70186     0.09786
      2696 72471.89588     3.20933    74.02556    77.53675     0.09905
      2697 72529.87339     3.21190    80.18028    77.42088     0.09288
      2698 72587.89729     3.21447    78.56975    77.34647     0.09384
      2699 72645.96761     3.21704    77.09172    77.31032     0.09457
      2700 72704.08438     3.21961    82.62381    77.31065     0.08917
      2701 72762.24765     3.22219    77.31522    77.34695     0.09324
      2702 72820.45745     3.22477    77.99812    77.41957     0.09251
      2703 72878.71382     3.22735    75.91512    77.52993     0.09464
      2704 72937.01679     3.22993    78.22183    77.68018     0.09272
      2705 72995.36640     3.23252    76.19085    77.87381     0.09432
      2706 73053.76269     3.23510    75.94112    78.11573     0.09397
      2707 73112.20570     3.23769    77.75708    78.41267     0.09172
      2708 73170.69547     3.24028    75.01411    78.77407     0.09358
      2709 73229.23202     3.24287    78.34840    79.21401     0.09007
      2710 73287.81541     3.24547    78.27390    79.75603     0.08983
      2711 73346.44566     3.24807    83.67797    80.44489     0.08525
      2712 73405.12282     3.25067    85.91387    81.37341     0.08335
      2713 73463.84692     3.25327    76.37277    82.73752     0.09079
      2714 73522.61800     3.25587    84.29011    84.93527     0.08405
      2715 73581.43609     3.25848    95.67643    88.71663     0.07613
      2716 73640.30124     3.26108    87.28846    95.35838     0.08199
      2717 73699.21348     3.26369   111.99800   106.77800     0.06793
      2718 73758.17285     3.26631   134.50166   125.43106     0.05883
      2719 73817.17939     3.26892   166.64920   153.81698     0.04903
      2720 73876.23313     3.27154   202.21601   193.52090     0.04123
      2721 73935.33412     3.27415   255.24209   243.96182     0.03326
      2722 73994.48239     3.27677   308.32636   301.27916     0.02782
      2723 74053.67797     3.27940   354.08328   357.87213     0.02434
      2724 74112.92091     3.28202   396.52987   403.08846     0.02180
      2725 74172.21125     3.28465   404.28115   425.74294     0.02132
      2726 74231.54902     3.28727   387.07302   419.35330     0.02214
      2727 74290.93426     3.28991   360.59417   386.66781     0.02360
      2728 74350.36701     3.29254   324.87752   336.60987     0.02597
      2729 74409.84730     3.29517   278.26654   280.56319     0.02990
      2730 74469.37518     3.29781   240.59937   228.49609     0.03407
      2731 74528.95068     3.30045   191.61077   187.38019     0.04172
      2732 74588.57384     3.30309   183.14057   161.16915     0.04343
      2733 74648.24470     3.30573   177.47410   151.67737     0.04470
      2734 74707.96329     3.30838   184.31539   159.63310     0.04327
      2735 74767.72966     3.31103   209.80650   185.17147     0.03850
      2736 74827.54385     3.31368   236.06486   227.39989     0.03454
      2737 74887.40588     3.31633   295.69351   283.25984     0.02801
      2738 74947.31581     3.31898   359.47471   346.36844     0.02326
      2739 75007.27366     3.32164   390.65639   406.58912     0.02140
      2740 75067.27948     3.32430   430.93124   451.05257     0.01941
      2741 75127.33330     3.32696   434.16228   467.76618     0.01919
      2742 75187.43517     3.32962   428.99069   451.56279     0.01933
      2743 75247.58512     3.33228   394.45783   407.26633     0.02085
      2744 75307.78319     3.33495   331.27155   346.34838     0.02446
      2745 75368.02941     3.33762   278.01214   281.26790     0.02867
      2746 75428.32384     3.34029   225.56049   221.79115     0.03454
      2747 75488.66649     3.34296   186.18277   173.56840     0.04080
      2748 75549.05743     3.34564   147.10429   138.29572     0.04982
      2749 75609.49667     3.34831   135.02947   114.66407     0.05336
      2750 75669.98427     3.35099   116.59501    99.98090     0.06016
      2751 75730.52026     3.35368   100.74072    91.36833     0.06756
      2752 75791.10467     3.35636    98.22937    86.46774     0.06852
      2753 75851.73756     3.35905    91.02220    83.65319     0.07209
      2754 75912.41895     3.36173    79.68571    81.94313     0.07908
      2755 75973.14888     3.36442    82.72357    80.80490     0.07634
      2756 76033.92740     3.36712    81.24482    79.97193     0.07711
      2757 76094.75454     3.36981    73.47699    79.48691     0.08299
      2758 76155.63035     3.37251    71.54187    79.12162     0.08425
      2759 76216.55485     3.37521    75.30603    78.74316     0.08034
      2760 76277.52810     3.37791    76.37010    78.38107     0.07860
      2761 76338.55012     3.38061    69.40193    78.06415     0.08321
      2762 76399.62096     3.38332    70.97913    77.79039     0.08108
      2763 76460.74066     3.38602    64.89433    77.55388     0.08600
      2764 76521.90925     3.38873    72.84336    77.34922     0.07950
      2765 76583.12678     3.39145    76.19065    77.17176     0.07739
      2766 76644.39328     3.39416    67.28121    77.01774     0.08506
      2767 76705.70879     3.39688    73.99310    76.88406     0.07947
      2768 76767.07336     3.39959    70.04374    76.76818     0.08273
      2769 76828.48702     3.40231    74.90519    76.66799     0.07875
      2770 76889.94981     3.40504    70.25323    76.58178     0.08246
      2771 76951.46177     3.40776    70.90235    76.50805     0.08168
      2772 77013.02294     3.41049    72.35667    76.44562     0.08010
      2773 77074.63335     3.41322    67.82346    76.39348     0.08334
      2774 77136.29306     3.41595    73.51064    76.35088     0.07782
      2775 77198.00210     3.41868    71.98082    76.31717     0.07827
      2776 77259.76050     3.42142    72.02452    76.29174     0.07792
      2777 77321.56831     3.42416    80.18995    76.27421     0.07214
      2778 77383.42556     3.42690    75.36162    76.26431     0.07569
      2779 77445.33230     3.42964    70.02591    76.26193     0.07962
      2780 77507.28857     3.43238    79.52392    76.14472     0.07185
      2781 77569.29440     3.43513    68.02232    75.97981     0.07933
      2782 77631.34983     3.43788    71.56026    76.12366     0.07552
      2783 77693.45491     3.44063    69.22810    76.31885     0.07673
      2784 77755.60968     3.44338    66.19299    76.41936     0.07905
      2785 77817.81416     3.44614    68.81851    76.50225     0.07721
      2786 77880.06842     3.44890    75.51937    76.59324     0.07277
      2787 77942.37247     3.45166    72.39013    76.69776     0.07579
      2788 78004.72637     3.45442    76.80609    76.81656     0.07298
      2789 78067.13015     3.45718    76.07391    76.94829     0.07330
      2790 78129.58385     3.45995    69.46171    77.09007     0.07752
      2791 78192.08752     3.46272    66.97359    77.23834     0.07829
      2792 78254.64119     3.46549    69.49266    77.39045     0.07511
      2793 78317.24490     3.46826    69.49092    77.54673     0.07447
      2794 78379.89870     3.47104    72.15079    77.71164     0.07240
      2795 78442.60262     3.47382    71.09005    77.89276     0.07336
      2796 78505.35670     3.47660    79.71202    77.84571     0.06759
      2797 78568.16099     3.47938    82.25358    77.98992     0.06598
      2798 78631.01552     3.48216    77.94865    78.26681     0.06869
      2799 78693.92033     3.48495    77.69700    78.60665     0.06888
      2800 78756.87546     3.48774    74.46122    79.00671     0.07101
      2801 78819.88096     3.49053    76.83047    79.47705     0.06896
      2802 78882.93687     3.49332    77.74819    80.03588     0.06778
      2803 78946.04322     3.49612    87.27272    80.71722     0.06166
      2804 79009.20005     3.49892    74.35768    81.58829     0.06945
      2805 79072.40741     3.50172    80.53184    82.81122     0.06526
      2806 79135.66534     3.50452    86.93105    84.63842     0.06127
      2807 79198.97387     3.50732    81.76509    87.56120     0.06389
      2808 79262.33305     3.51013   101.33844    92.50502     0.05409
      2809 79325.74292     3.51294   111.87323   100.91868     0.05007
      2810 79389.20351     3.51575   117.86966   114.85061     0.04808
      2811 79452.71487     3.51857   151.00282   136.80310     0.03908
      2812 79516.27705     3.52138   189.51205   169.24136     0.03206
      2813 79579.89007     3.52420   226.13988   213.72235     0.02739
      2814 79643.55398     3.52702   298.55083   269.79261     0.02129
      2815 79707.26882     3.52984   348.77291   333.99698     0.01845
      2816 79771.03464     3.53267   419.71899   399.40094     0.01553
      2817 79834.85147     3.53549   447.73025   455.97474     0.01461
      2818 79898.71935     3.53832   469.86225   492.37108     0.01396
      2819 79962.63832     3.54115   486.26109   499.75137     0.01351
      2820 80026.60843     3.54399   445.60565   476.25355     0.01467
      2821 80090.62972     3.54682   416.17128   427.99744     0.01564
      2822 80154.70222     3.54966   379.19054   365.63311     0.01705
      2823 80218.82599     3.55250   317.35887   300.06886     0.02008
      2824 80283.00105     3.55535   249.63972   239.85141     0.02496
      2825 80347.22745     3.55819   211.73240   190.10520     0.02888
      2826 80411.50523     3.56104   162.70883   152.62253     0.03628
      2827 80475.83443     3.56389   147.14086   126.65602     0.03952
      2828 80540.21510     3.56674   136.85271   110.04487     0.04204
      2829 80604.64727     3.56960   112.85962   100.26576     0.04926
      2830 80669.13099     3.57245   112.09540    95.15494     0.04955
      2831 80733.66630     3.57531   103.71241    93.27237     0.05273
      2832 80798.25323     3.57817    99.82225    94.01799     0.05429
      2833 80862.89183     3.58104   104.84632    97.63439     0.05216
      2834 80927.58214     3.58390   107.03963   105.14906     0.05122
      2835 80992.32421     3.58677   131.94880   118.25105     0.04317
      2836 81057.11807     3.58964   158.49101   138.97710     0.03700
      2837 81121.96376     3.59251   186.66317   169.11528     0.03221
      2838 81186.86133     3.59539   228.12617   209.34779     0.02706
      2839 81251.81082     3.59827   269.73676   258.31586     0.02332
      2840 81316.81227     3.60115   330.18522   311.92954     0.01939
      2841 81381.86572     3.60403   376.82452   363.23909     0.01714
      2842 81446.97122     3.60691   407.62903   403.18270     0.01591
      2843 81512.12879     3.60980   420.90972   422.78805     0.01542
      2844 81577.33850     3.61269   395.59640   416.93517     0.01631
      2845 81642.60037     3.61558   378.25064   387.20990     0.01696
      2846 81707.91445     3.61847   319.46715   340.85457     0.01976
      2847 81773.28078     3.62137   286.45241   287.15022     0.02180
      2848 81838.69940     3.62427   250.21782   234.39072     0.02463
      2849 81904.17036     3.62717   180.86844   188.36439     0.03275
      2850 81969.69370     3.63007   163.82429   151.95825     0.03583
      2851 82035.26945     3.63297   133.02252   125.53677     0.04284
      2852 82100.89767     3.63588   124.36311   107.78311     0.04560
      2853 82166.57839     3.63879    99.42079    96.63805     0.05492
      2854 82232.31165     3.64170    93.32825    90.03908     0.05818
      2855 82298.09750     3.64462    89.01220    86.33658     0.06080
      2856 82363.93598     3.64753    93.18483    84.42353     0.05912
      2857 82429.82713     3.65045    90.60266    83.69279     0.06067
      2858 82495.77099     3.65337    91.14476    83.92707     0.06007
      2859 82561.76760     3.65630    73.01783    85.18959     0.06999
      2860 82627.81702     3.65922    80.33759    87.69268     0.06426
      2861 82693.91927     3.66215    90.52448    91.70163     0.05839
      2862 82760.07441     3.66508    94.40278    97.40146     0.05675
      2863 82826.28247     3.66802   104.53438   104.73825     0.05300
      2864 82892.54349     3.67095   124.33843   113.29331     0.04658
      2865 82958.85753     3.67389   137.53801   122.21582     0.04299
      2866 83025.22461     3.67683   132.60624   130.25235     0.04411
      2867 83091.64479     3.67977   143.15595   135.92237     0.04104
      2868 83158.11811     3.68272   147.78836   137.92849     0.03969
      2869 83224.64460     3.68566   142.53226   135.73107     0.04082
      2870 83291.22432     3.68861   133.22345   129.83858     0.04324
      2871 83357.85730     3.69157   122.22643   121.51182     0.04659
      2872 83424.54358     3.69452   120.09785   112.21570     0.04750
      2873 83491.28322     3.69748   105.90376   103.21725     0.05271
      2874 83558.07625     3.70044    96.60119    95.39295     0.05675
      2875 83624.92271     3.70340    89.67398    89.18453     0.06029
      2876 83691.82265     3.70636    88.61691    84.66077     0.06105
      2877 83758.77610     3.70933    84.83152    81.42209     0.06312
      2878 83825.78312     3.71230    77.32666    79.47681     0.06747
      2879 83892.84375     3.71527    72.63097    78.61391     0.07028
      2880 83959.95803     3.71824    79.12633    78.49198     0.06574
      2881 84027.12599     3.72122    73.16798    78.95837     0.06946
      2882 84094.34769     3.72419    81.29419    79.89260     0.06440
      2883 84161.62317     3.72717    73.99082    81.19260     0.06910
      2884 84228.95247     3.73016    82.89526    82.73365     0.06363
      2885 84296.33563     3.73314    81.03228    84.33286     0.06476
      2886 84363.77270     3.73613    74.78742    85.75578     0.06862
      2887 84431.26372     3.73912    84.99806    86.75017     0.06230
      2888 84498.80873     3.74211    84.35536    87.12135     0.06253
      2889 84566.40778     3.74511    85.01864    86.82509     0.06216
      2890 84634.06090     3.74810    88.65424    85.99668     0.06025
      2891 84701.76815     3.75110    80.63194    84.88046     0.06465
      2892 84769.52957     3.75411    77.39186    83.72645     0.06640
      2893 84837.34519     3.75711    83.17743    82.71728     0.06268
      2894 84905.21507     3.76012    71.75097    81.93437     0.06970
      2895 84973.13924     3.76313    78.99781    81.35533     0.06506
      2896 85041.11775     3.76614    79.50121    80.87957     0.06495
      2897 85109.15064     3.76915    79.78374    80.38160     0.06494
      2898 85177.23796     3.77217    79.74476    79.77471     0.06492
      2899 85245.37975     3.77519    74.27497    79.04542     0.06827
      2900 85313.57606     3.77821    77.13364    78.23964     0.06637
      2901 85381.82692     3.78123    78.98001    77.33059     0.06529
      2902 85450.13238     3.78426    70.96870    76.38574     0.07094
      2903 85518.49249     3.78729    87.11892    75.72342     0.06151
      2904 85586.90728     3.79032    72.35132    75.22053     0.07103
      2905 85655.37681     3.79335    72.99053    74.85347     0.07033
      2906 85723.90111     3.79639    74.13103    74.60238     0.06882
      2907 85792.48023     3.79942    72.47607    74.44251     0.06919
      2908 85861.11421     3.80246    73.41285    74.35032     0.06793
      2909 85929.80310     3.80551    68.50582    74.30802     0.07078
      2910 85998.54695     3.80855    67.34793    74.30662     0.07149
      2911 86067.34578     3.81160    70.68058    74.34793     0.06960
      2912 86136.19966     3.81465    70.42870    74.44633     0.07086
      2913 86205.10862     3.81770    69.73684    74.63074     0.07271
      2914 86274.07271     3.82076    78.31498    74.94569     0.06763
      2915 86343.09197     3.82382    76.38797    75.44934     0.06923
      2916 86412.16644     3.82688    75.36988    76.20579     0.06989
      2917 86481.29617     3.82994    73.30828    77.26984     0.07106
      2918 86550.48121     3.83301    76.79218    78.66505     0.06824
      2919 86619.72159     3.83607    77.68593    80.35959     0.06728
      2920 86689.01737     3.83914    78.97430    82.24728     0.06636
      2921 86758.36858     3.84222    83.38225    84.14110     0.06365
      2922 86827.77528     3.84529    84.06083    85.78504     0.06313
      2923 86897.23750     3.84837    83.09946    86.89404     0.06378
      2924 86966.75529     3.85145    89.43593    87.23590     0.06075
      2925 87036.32869     3.85453    78.19515    86.73330     0.06788
      2926 87105.95776     3.85761    85.39919    85.50373     0.06409
      2927 87175.64252     3.86070    86.31907    83.79727     0.06411
      2928 87245.38304     3.86379    80.22653    81.85253     0.06803
      2929 87315.17934     3.86688    81.87057    79.99625     0.06668
      2930 87385.03149     3.86998    80.05171    78.38070     0.06733
      2931 87454.93951     3.87308    74.07847    77.09427     0.07111
      2932 87524.90346     3.87618    88.21949    76.16653     0.06246
      2933 87594.92339     3.87928    77.18376    75.58589     0.06931
      2934 87664.99933     3.88238    83.48402    75.32860     0.06535
      2935 87735.13133     3.88549    81.18572    75.38490     0.06662
      2936 87805.31943     3.88860    75.39467    75.77513     0.07019
      2937 87875.56369     3.89171    77.65922    76.55174     0.06836
      2938 87945.86414     3.89483    76.25084    77.78526     0.06884
      2939 88016.22083     3.89794    71.87333    79.53498     0.07144
      2940 88086.63380     3.90106    77.60732    81.80940     0.06746
      2941 88157.10311     3.90418    87.93018    84.52618     0.06168
      2942 88227.62879     3.90731    78.35799    87.48412     0.06775
      2943 88298.21090     3.91044    91.02002    90.35809     0.06089
      2944 88368.84947     3.91357    89.95978    92.72638     0.06145
      2945 88439.54455     3.91670    95.93785    94.14924     0.05822
      2946 88510.29618     3.91983    93.84554    94.31282     0.05894
      2947 88581.10442     3.92297    85.28816    93.17576     0.06313
      2948 88651.96930     3.92611    88.21579    90.98815     0.06139
      2949 88722.89088     3.92925    80.76096    88.15814     0.06552
      2950 88793.86919     3.93240    83.99731    85.13731     0.06389
      2951 88864.90429     3.93554    78.28478    82.27753     0.06802
      2952 88935.99621     3.93869    82.73979    79.81438     0.06630
      2953 89007.14501     3.94184    75.97519    77.85782     0.07180
      2954 89078.35072     3.94500    72.93759    76.41138     0.07495
      2955 89149.61340     3.94816    71.76285    75.40798     0.07622
      2956 89220.93309     3.95132    71.03347    74.74830     0.07661
      2957 89292.30984     3.95448    79.99367    74.33116     0.06961
      2958 89363.74369     3.95764    73.15276    74.06862     0.07383
      2959 89435.23468     3.96081    70.84556    73.90495     0.07520
      2960 89506.78287     3.96398    75.07472    73.79677     0.07213
      2961 89578.38830     3.96715    71.88145    73.71887     0.07462
      2962 89650.05101     3.97033    69.69023    73.65734     0.07644
      2963 89721.77105     3.97350    71.76895    73.60482     0.07475
      2964 89793.54846     3.97668    71.17946    73.55757     0.07480
      2965 89865.38330     3.97987    72.55964    73.51353     0.07327
      2966 89937.27561     3.98305    65.89570    73.47160     0.07827
      2967 90009.22543     3.98624    72.47932    73.43108     0.07327
      2968 90081.23281     3.98943    70.07440    73.39149     0.07540
      2969 90153.29780     3.99262    70.67370    73.35244     0.07538
      2970 90225.42044     3.99582    76.16398    73.31363     0.07150
      2971 90297.60077     3.99902    74.14333    73.27480     0.07286
      2972 90369.83885     4.00222    76.90605    73.23573     0.07055
      2973 90442.13472     4.00542    76.33030    73.19624     0.07017
      2974 90514.48843     4.00863    73.39664    73.15616     0.07104
      2975 90586.90002     4.01183    75.09635    73.11535     0.06882
      2976 90659.36954     4.01504    68.84263    73.07367     0.07232
      2977 90731.89704     4.01826    66.94903    73.03101     0.07314
      2978 90804.48256     4.02147    70.67684    72.98727     0.07026
      2979 90877.12614     4.02469    73.48659    72.94236     0.06858
      2980 90949.82784     4.02791    70.26675    72.89617     0.07131
      2981 91022.58770     4.03114    72.78580    72.84864     0.07002
      2982 91095.40577     4.03436    73.91667    72.79969     0.06928
      2983 91168.28210     4.03759    78.33253    72.74925     0.06591
      2984 91241.21672     4.04082    85.73671    72.69726     0.06107
      2985 91314.20970     4.04406    78.68373    72.64225     0.06470
      2986 91387.26107     4.04729    77.24590    72.95600     0.06528
      2987 91460.37087     4.05053    73.59706    73.24931     0.06725
      2988 91533.53917     4.05377    70.70943    73.25076     0.06858
      2989 91606.76600     4.05702    76.99653    73.21935     0.06367
      2990 91680.05142     4.06027    76.90050    73.18216     0.06291
      2991 91753.39546     4.06352    68.51026    73.14332     0.06778
      2992 91826.79817     4.06677    79.76295    73.10362     0.06055
      2993 91900.25961     4.07002    70.31591    73.06315     0.06607
      2994 91973.77982     4.07328    72.33370    73.02193     0.06450
      2995 92047.35884     4.07654    72.70452    72.98003     0.06395
      2996 92120.99673     4.07980    74.68455    72.93749     0.06235
      2997 92194.69353     4.08307    80.75422    72.89439     0.05853
      2998 92268.44928     4.08633    72.80295    72.85085     0.06289
      2999 92342.26404     4.08961    70.55643    72.80693     0.06453
      3000 92416.13785     4.09288    77.93707    72.76273     0.06053
      3001 92490.07076     4.09615    77.89367    72.71836     0.06085
      3002 92564.06282     4.09943    75.37378    72.67397     0.06247
      3003 92638.11407     4.10271    76.55877    72.62970     0.06165
      3004 92712.22456     4.10600    78.62473    72.58572     0.06023
      3005 92786.39434     4.10928    80.79461    72.54221     0.05885
      3006 92860.62346     4.11257    71.67618    72.49939     0.06417
      3007 92934.91196     4.11586    80.55253    72.44721     0.05868
      3008 93009.25988     4.11916    77.40106    72.39832     0.05982
      3009 93083.66729     4.12245    81.06620    72.35868     0.05689
      3010 93158.13423     4.12575    74.57557    72.32179     0.05926
      3011 93232.66073     4.12905    72.97239    72.28725     0.05946
      3012 93307.24686     4.13236    74.54501    72.25533     0.05865
      3013 93381.89266     4.13567    69.27555    72.22647     0.06227
      3014 93456.59817     4.13898    75.47134    72.20120     0.05925
      3015 93531.36345     4.14229    68.62204    72.18009     0.06383
      3016 93606.18854     4.14560    71.47031    72.16377     0.06219
      3017 93681.07349     4.14892    73.38816    73.33527     0.06090
      3018 93756.01835     4.15224    72.68625    74.27802     0.06115
      3019 93831.02317     4.15557    85.68671    74.74520     0.05423
      3020 93906.08799     4.15889    91.71393    74.88609     0.05176
      3021 93981.21286     4.16222    82.90550    75.26364     0.05606
      3022 94056.39783     4.16555    79.54993    75.47059     0.05776
      3023 94131.64295     4.16888    82.01267    75.61982     0.05634
      3024 94206.94826     4.17222    84.38084    75.77843     0.05487
      3025 94282.31382     4.17556    84.20116    75.95658     0.05460
      3026 94357.73967     4.17890    78.77358    76.15808     0.05701
      3027 94433.22586     4.18225    76.26769    76.38644     0.05815
      3028 94508.77244     4.18559    84.10311    76.64518     0.05377
      3029 94584.37946     4.18894    78.41587    76.93840     0.05592
      3030 94660.04696     4.19230    80.94214    77.27089     0.05391
      3031 94735.77500     4.19565    75.04795    77.64838     0.05625
      3032 94811.56362     4.19901    71.79138    78.07772     0.05772
      3033 94887.41287     4.20237    73.21370    78.56728     0.05697
      3034 94963.32280     4.20573    79.29645    79.12764     0.05391
      3035 95039.29346     4.20910    80.52286    79.77300     0.05341
      3036 95115.32490     4.21247    78.20461    80.52406     0.05445
      3037 95191.41715     4.21584    74.38714    81.41388     0.05599
      3038 95267.57029     4.21921    80.22663    82.49950     0.05237
      3039 95343.78434     4.22259    73.30447    83.88358     0.05518
      3040 95420.05937     4.22597    83.45487    85.75237     0.05011
      3041 95496.39542     4.22935    80.93479    88.43563     0.05128
      3042 95572.79254     4.23274    85.49557    92.49529     0.04937
      3043 95649.25077     4.23612    92.52291    98.83735     0.04656
      3044 95725.77017     4.23952   104.04787   108.82962     0.04247
      3045 95802.35079     4.24291   107.25923   124.38373     0.04141
      3046 95878.99267     4.24630   126.57718   147.93652     0.03631
      3047 95955.69586     4.24970   152.76049   182.25305     0.03112
      3048 96032.46042     4.25310   211.58255   229.98904     0.02348
      3049 96109.28639     4.25651   279.39558   293.00678     0.01826
      3050 96186.17382     4.25991   348.19605   371.53102     0.01487
      3051 96263.12275     4.26332   483.74748   463.32844     0.01089
      3052 96340.13325     4.26674   569.32045   563.14400     0.00929
      3053 96417.20536     4.27015   701.79595   662.59523     0.00758
      3054 96494.33912     4.27357   814.27087   750.67984     0.00655
      3055 96571.53460     4.27699   870.13166   815.16979     0.00612
      3056 96648.79182     4.28041   921.36110   845.31793     0.00577
      3057 96726.11086     4.28384   888.27315   835.53203     0.00596
      3058 96803.49175     4.28727   791.97349   787.79865     0.00663
      3059 96880.93454     4.29070   727.89797   710.73646     0.00716
      3060 96958.43929     4.29413   622.00739   616.23518     0.00829
      3061 97036.00604     4.29757   516.45928   516.20576     0.00984
      3062 97113.63484     4.30101   420.71281   420.56284     0.01187
      3063 97191.32575     4.30445   339.59956   336.25831     0.01444
      3064 97269.07881     4.30789   273.03733   267.05433     0.01762
      3065 97346.89407     4.31134   218.88302   213.86892     0.02155
      3066 97424.77159     4.31479   182.72190   175.51499     0.02537
      3067 97502.71141     4.31825   171.24359   149.59137     0.02689
      3068 97580.71358     4.32170   153.51981   133.29630     0.02954
      3069 97658.77815     4.32516   136.37478   124.02041     0.03250
      3070 97736.90517     4.32862   129.41522   119.68619     0.03361
      3071 97815.09469     4.33209   112.91263   118.88606     0.03718
      3072 97893.34677     4.33555   130.06024   120.91366     0.03275
      3073 97971.66145     4.33902   126.59856   125.78563     0.03322
      3074 98050.03878     4.34250   130.56902   134.32992     0.03221
      3075 98128.47881     4.34597   142.76712   148.38075     0.02973
      3076 98206.98159     4.34945   150.76316   171.07312     0.02821
      3077 98285.54717     4.35293   182.00219   207.16938     0.02390
      3078 98364.17561     4.35642   220.05251   263.28339     0.02018
      3079 98442.86695     4.35990   279.73716   347.76989     0.01623
      3080 98521.62125     4.36339   367.48775   470.07745     0.01261
      3081 98600.43854     4.36688   530.05262   639.34793     0.00892
      3082 98679.31889     4.37038   741.60326   862.25675     0.00645
      3083 98758.26235     4.37388  1038.15775  1140.34070     0.00464
      3084 98837.26896     4.37738  1394.52199  1467.34403     0.00347
      3085 98916.33877     4.38088  1811.78105  1827.26321     0.00267
      3086 98995.47185     4.38439  2233.32190  2193.70129     0.00217
      3087 99074.66822     4.38790  2678.59144  2531.02739     0.00181
      3088 99153.92796     4.39141  2966.39297  2798.18077     0.00163
      3089 99233.25110     4.39492  3146.69885  2956.51255     0.00153
      3090 99312.63770     4.39844  3152.02215  2981.14832     0.00152
      3091 99392.08781     4.40196  2993.86025  2869.84735     0.00159
      3092 99471.60148     4.40548  2752.27813  2642.48439     0.00172
      3093 99551.17876     4.40901  2421.72298  2332.79339     0.00194
      3094 99630.81971     4.41254  2052.50143  1979.25172     0.00227
      3095 99710.52436     4.41607  1661.13257  1618.22554     0.00278
      3096 99790.29278     4.41960  1296.16309  1279.20539     0.00352
      3097 99870.12502     4.42314   974.13426   982.15285     0.00461
      3098 99950.02112     4.42668   728.07314   737.10438     0.00607
      3099 100029.98113     4.43023   585.85893   545.59146     0.00741
      3100 100110.00512     4.43377   451.06214   403.07330     0.00943
      3101 100190.09312     4.43732   330.03405   301.59180     0.01256
      3102 100270.24520     4.44087   263.58326   232.06357     0.01541
      3103 100350.46139     4.44443   215.45663   185.90046     0.01846
      3104 100430.74176     4.44798   179.17400   155.90714     0.02162
      3105 100511.08635     4.45154   164.19508   136.58149     0.02311
      3106 100591.49522     4.45511   139.53641   124.02119     0.02618
      3107 100671.96842     4.45867   128.55732   115.63123     0.02746
      3108 100752.50599     4.46224   120.22139   109.76604     0.02835
      3109 100833.10800     4.46581   101.65003   105.44306     0.03158
      3110 100913.77449     4.46938    95.28899   102.09099     0.03251
      3111 100994.50550     4.47296   101.81225    99.38348     0.03049
      3112 101075.30111     4.47654    91.22856    97.13307     0.03257
      3113 101156.16135     4.48012    94.49780    95.22832     0.03140
      3114 101237.08628     4.48371    93.68656    93.59865     0.03132
      3115 101318.07595     4.48730    86.94631    92.19550     0.03286
      3116 101399.13041     4.49089    77.13971    90.98282     0.03573
      3117 101480.24971     4.49448    85.19469    89.93212     0.03357
      3118 101561.43391     4.49808    89.08673    89.01992     0.03265
      3119 101642.68306     4.50168    81.57940    88.22635     0.03479
      3120 101723.99721     4.50529    82.75273    87.53427     0.03439
      3121 101805.37640     4.50889    93.70522    86.92871     0.03137
      3122 101886.82071     4.51250    80.15087    86.39643     0.03496
      3123 101968.33016     4.51611    83.46610    85.30841     0.03383
      3124 102049.90483     4.51973    77.68257    84.79574     0.03552
      3125 102131.54475     4.52334    88.46984    84.42503     0.03242
      3126 102213.24999     4.52696    84.06742    84.09710     0.03370
      3127 102295.02059     4.53059    86.78915    83.79337     0.03298
      3128 102376.85660     4.53421    79.83254    83.50426     0.03505
      3129 102458.75809     4.53784    83.00424    83.22218     0.03429
      3130 102540.72509     4.54147    78.19817    82.93987     0.03604
      3131 102622.75767     4.54511    89.26154    82.65020     0.03285
      3132 102704.85588     4.54875    84.18068    82.34613     0.03418
      3133 102787.01977     4.55239    77.25045    82.02070     0.03597
      3134 102869.24938     4.55603    78.07873    81.66697     0.03509
      3135 102951.54478     4.55968    85.87362    81.27795     0.03236
      3136 103033.90602     4.56333    85.24362    80.84658     0.03239
      3137 103116.33314     4.56698    75.65409    80.36565     0.03541
      3138 103198.82621     4.57063    77.41885    79.82791     0.03528
      3139 103281.38527     4.57429    79.71222    79.22583     0.03506
      3140 103364.01038     4.57795    80.68910    78.55148     0.03503
      3141 103446.70159     4.58162    85.79090    77.79684     0.03331
      3142 103529.45895     4.58528    72.78750    76.95360     0.03735
loop_
_refln_index_h
_refln_index_k
_refln_index_l
_refln_d_spacing
_refln_F_squared_calc
_refln_F_squared_meas  
   0   0   2     4.27987  1918.77601  1976.61052 
   0   0   4     2.13994  1131.38574  1139.68565 
   0   0   6     1.42662  1642.60005  1650.38345 
   0   0   8     1.06997    53.95975    53.85792 
   0   0  10     0.85597    60.73853    60.54214 
   0   0  12     0.71331    65.95169    66.69151 
   0   0  14     0.61141     5.89256     5.79121 
   0   0  16     0.53498   555.23153   554.77833 
   0   0  18     0.47554     0.46054     0.47141 
   0   0  20     0.42799    77.76855    77.35542 
   0   0  22     0.38908   386.26438   386.00110 
   0   1   3     2.78265     9.01484     9.22520 
   0   1   5     1.69633    53.06877    52.13386 
   0   1   7     1.21709     5.42356     5.44786 
   0   1   9     0.94838  1096.54875  1103.98998 
   0   1  11     0.77668    23.12636    22.97220 
   0   1  13     0.65754     1.67498     1.68089 
   0   1  15     0.57006   257.56481   254.26054 
   0   1  17     0.50311    73.96136    74.44192 
   0   1  19     0.45022    74.52143    75.58899 
   0   1  21     0.40739     9.36725     9.20305 
   0   1  23     0.37200     4.67175     5.06256 
   0   2   2     3.53908  1613.47014  1648.29725 
   0   2   4     2.02602    77.68644    76.69472 
   0   2   6     1.39133    86.62888    87.18476 
   0   2   8     1.05483   125.16304   126.21888 
   0   2  10     0.84817  1537.37946  1518.10190 
   0   2  12     0.70877   921.18534   931.00049 
   0   2  14     0.60855     0.04212     0.04128 
   0   2  16     0.53306   723.99532   719.92677 
   0   2  18     0.47419   521.26404   530.60066 
   0   2  20     0.42700    34.80210    34.60383 
   0   2  22     0.38834   811.21051   810.84860 
   0   3   1     3.76746    15.88307    15.54030 
   0   3   3     2.35938    71.00695    70.08305 
   0   3   5     1.58508     1.68043     1.69453 
   0   3   7     1.17398   154.03568   156.81459 
   0   3   9     0.92755   917.75288   913.40211 
   0   3  11     0.76511    40.90450    41.54451 
   0   3  13     0.65048     3.26818     3.29776 
   0   3  15     0.56544    52.51473    51.70124 
   0   3  17     0.49993    30.98150    31.39185 
   0   3  19     0.44794    83.91540    83.94660 
   0   3  21     0.40570     3.78842     3.71038 
   0   4   0     3.14679  3442.25088  3608.92920 
   0   4   2     2.53526   428.22242   420.96808 
   0   4   4     1.76954   278.36443   278.13575 
   0   4   6     1.29933  1363.43793  1348.97769 
   0   4   8     1.01301   264.78394   262.58515 
   0   4  10     0.82596    62.19685    61.77426 
   0   4  12     0.69566   107.96858   108.79704 
   0   4  14     0.60019    12.09831    11.95704 
   0   4  16     0.52742   914.57596   904.54049 
   0   4  18     0.47020     1.33969     1.39315 
   0   4  20     0.42408   133.54508   131.06330 
   0   4  22     0.38614   659.73646   657.18575 
   0   5   1     2.41514    28.69535    29.25646 
   0   5   3     1.88771   492.33899   500.32549 
   0   5   5     1.41563   308.95886   307.90099 
   0   5   7     1.09993    72.98358    72.94495 
   0   5   9     0.88971  2093.88978  2105.86668 
   0   5  11     0.74345    42.76906    42.99812 
   0   5  13     0.63701    47.45178    47.01756 
   0   5  15     0.55653   310.54872   305.65502 
   0   5  17     0.49374   215.11958   222.00669 
   0   5  19     0.44347    96.39206    96.68260 
   0   5  21     0.40237    42.50932    41.39922 
   0   6   0     2.09786    39.87735    39.81446 
   0   6   2     1.88373   208.06074   211.70742 
   0   6   4     1.49806   934.95693   925.88653 
   0   6   6     1.17969  1060.91414  1075.36791 
   0   6   8     0.95315   611.41308   609.84688 
   0   6  10     0.79254  1730.38967  1721.30267 
   0   6  12     0.67534   961.05008   975.84392 
   0   6  14     0.58699    20.76078    20.32012 
   0   6  16     0.51839   710.35547   715.07052 
   0   6  18     0.46378   574.89421   585.34640 
   0   6  20     0.41935    78.30421    76.50167 
   0   6  22     0.38256   756.82480   762.94696 
   0   7   1     1.75975   242.05837   250.23898 
   0   7   3     1.52126   339.59283   341.81278 
   0   7   5     1.23989   153.47701   152.94888 
   0   7   7     1.01116  1092.67163  1096.18733 
   0   7   9     0.84073   914.34195   901.54915 
   0   7  11     0.71416   117.80923   118.55152 
   0   7  13     0.61829    33.12324    33.30623 
   0   7  15     0.54392     5.63220     5.57984 
   0   7  17     0.48486     8.23211     8.43200 
   0   7  19     0.43701    87.44004    86.80524 
   0   7  21     0.39752    44.39429    43.47945 
   0   8   0     1.57339  1052.24969  1061.17032 
   0   8   2     1.47676     1.17247     1.17055 
   0   8   4     1.26763     8.02136     7.99353 
   0   8   6     1.05686   271.21777   271.04071 
   0   8   8     0.88477   380.42276   376.89610 
   0   8  10     0.75191     1.61742     1.63081 
   0   8  12     0.64967    52.53367    52.84842 
   0   8  14     0.56989    27.26345    26.93271 
   0   8  16     0.50651   624.13313   630.85599 
   0   8  18     0.45520     2.48634     2.52141 
   0   8  20     0.41298   136.28102   132.74693 
   0   8  22     0.37770   459.33833   465.69369 
   0   9   1     1.38027    96.90514    96.67702 
   0   9   3     1.25582   476.01887   476.89771 
   0   9   5     1.08309   450.09576   455.63454 
   0   9   7     0.92057    37.61781    37.54137 
   0   9   9     0.78646  2323.95419  2307.70086 
   0   9  11     0.67999    95.38445    97.10664 
   0   9  13     0.59572    41.65058    41.14763 
   0   9  15     0.52836   449.42484   443.37114 
   0   9  17     0.47375   241.98684   246.78278 
   0   9  19     0.42881    70.37921    69.60047 
   0   9  21     0.39133    96.32532    96.03971 
   0  10   0     1.25871    46.07437    46.26320 
   0  10   2     1.20757     1.49481     1.50364 
   0  10   4     1.08494   403.54601   407.47106 
   0  10   6     0.94386   757.57829   757.06415 
   0  10   8     0.81523   882.51540   870.20282 
   0  10  10     0.70782  1644.56406  1663.13124 
   0  10  12     0.62059   943.75457   939.23352 
   0  10  14     0.54996    97.25662    96.17103 
   0  10  16     0.49236   490.58601   500.47230 
   0  10  18     0.44485   492.19349   492.82379 
   0  10  20     0.40520   119.09600   117.26165 
   0  11   1     1.13420   230.73467   229.19435 
   0  11   3     1.06206    11.99898    12.17624 
   0  11   5     0.95134     5.63177     5.65217 
   0  11   7     0.83552   766.50091   760.80019 
   0  11   9     0.73142   311.26561   316.69128 
   0  11  11     0.64347   158.18599   157.97062 
   0  11  13     0.57070   146.57880   144.00570 
   0  11  15     0.51067    33.70529    33.83508 
   0  11  17     0.46087     8.56100     8.58945 
   0  11  19     0.41919    42.84933    41.85699 
   0  11  21     0.38397    78.12635    78.54877 
   0  12   0     1.04893  2977.32625  3018.07854 
   0  12   2     1.01878  1943.93193  1954.55983 
   0  12   4     0.94187   777.61495   779.52504 
   0  12   6     0.84509   618.86587   611.87014 
   0  12   8     0.74903    27.10804    27.23545 
   0  12  10     0.66318     0.02269     0.02295 
   0  12  12     0.58985    39.62396    39.45139 
   0  12  14     0.52823   107.54771   106.08898 
   0  12  16     0.47658   421.10723   432.24085 
   0  12  18     0.43311    61.57242    60.94673 
   0  12  20     0.39627   200.23592   197.79823 
   0  13   1     0.96211   269.84344   271.20574 
   0  13   3     0.91689    67.38400    66.61567 
   0  13   5     0.84278    66.32861    66.25825 
   0  13   7     0.75909    68.19363    68.17877 
   0  13   9     0.67850  1382.73799  1398.09894 
   0  13  11     0.60655    60.22248    60.05567 
   0  13  13     0.54447    37.78604    37.47803 
   0  13  15     0.49162   497.72740   506.40640 
   0  13  17     0.44672   185.30717   185.31044 
   0  13  19     0.40846    32.29070    31.63023 
   0  13  21     0.37568   147.10014   150.42174 
   0  14   0     0.89908  1034.53809  1033.75287 
   0  14   2     0.87988   757.91866   761.47273 
   0  14   4     0.82889    42.24286    42.16065 
   0  14   6     0.76063    50.31700    50.53013 
   0  14   8     0.68833   599.54445   608.81415 
   0  14  10     0.61994   960.37856   955.74532 
   0  14  12     0.55880   663.21000   650.22234 
   0  14  14     0.50558   204.37032   205.27298 
   0  14  16     0.45975   241.46042   242.11904 
   0  14  18     0.42036   394.23953   383.24701 
   0  14  20     0.38644   166.60240   166.50264 
   0  15   1     0.83514   228.80402   226.86161 
   0  15   3     0.80505     7.27405     7.25007 
   0  15   5     0.75349    64.06879    64.71710 
   0  15   7     0.69190   510.81320   513.31966 
   0  15   9     0.62924    30.47451    30.49949 
   0  15  11     0.57058    71.13188    69.92463 
   0  15  13     0.51801   114.89643   116.22582 
   0  15  15     0.47188   127.16068   131.01528 
   0  15  17     0.43175    16.06970    15.77320 
   0  15  19     0.39693    24.88976    24.50313 
   0  16   0     0.78670  2321.72009  2310.82346 
   0  16   2     0.77373  2960.45566  2966.88045 
   0  16   4     0.73838  1307.39140  1296.59085 
   0  16   6     0.68890   589.35492   597.61761 
   0  16   8     0.63382   100.58948   100.31897 
   0  16  10     0.57922     8.64472     8.56699 
   0  16  12     0.52843    67.75560    66.85381 
   0  16  14     0.48276   281.07176   290.50159 
   0  16  16     0.44238   226.81544   227.38003 
   0  16  18     0.40697   166.01287   162.73142 
   0  16  20     0.37595   256.96004   261.87990 
   0  17   1     0.73767   176.79137   174.62902 
   0  17   3     0.71668   137.75895   138.25385 
   0  17   5     0.67958   198.55741   201.37398 
   0  17   7     0.63336    22.39810    22.34861 
   0  17   9     0.58425   942.19492   926.54276 
   0  17  11     0.53640    22.67213    22.34555 
   0  17  13     0.49203    87.83385    89.44192 
   0  17  15     0.45199   242.60625   245.66054 
   0  17  17     0.41636   199.12168   194.98354 
   0  17  19     0.38487    27.59660    27.48533 
   0  18   0     0.69929   327.91318   332.94886 
   0  18   2     0.69013    22.37273    22.72145 
   0  18   4     0.66470    24.71453    25.17332 
   0  18   6     0.62791    68.91221    68.83932 
   0  18   8     0.58536   835.03257   816.47769 
   0  18  10     0.54154   566.30029   559.36153 
   0  18  12     0.49935   442.24475   448.29747 
   0  18  14     0.46028   369.23804   370.69440 
   0  18  16     0.42490   102.67570   100.91592 
   0  18  18     0.39323   376.00122   374.62275 
   0  19   1     0.66051   281.59788   283.92112 
   0  19   3     0.64532    26.14588    26.06195 
   0  19   5     0.61783    12.05695    12.12434 
   0  19   7     0.58249   792.79319   788.46952 
   0  19   9     0.54360    33.46071    33.13413 
   0  19  11     0.50444    52.91072    53.20493 
   0  19  13     0.46701    52.16970    53.31883 
   0  19  15     0.43236   232.31191   229.00466 
   0  19  17     0.40087     1.13011     1.11206 
   0  19  19     0.37253    24.93297    26.77037 
   0  20   0     0.62936   457.40347   457.61679 
   0  20   2     0.62266  1175.11436  1162.04194 
   0  20   4     0.60379   361.84137   359.58370 
   0  20   6     0.57582    36.79221    36.17753 
   0  20   8     0.54247   132.94959   131.17141 
   0  20  10     0.50705     0.85955     0.87106 
   0  20  12     0.47193    44.05072    45.37080 
   0  20  14     0.43854   434.92943   434.54381 
   0  20  16     0.40762    90.55090    88.98954 
   0  20  18     0.37941   261.85420   263.45475 
   0  21   1     0.59792    67.28055    66.01016 
   0  21   3     0.58658   211.28693   206.40460 
   0  21   5     0.56572   385.14873   378.68841 
   0  21   7     0.53821    19.35544    19.21733 
   0  21   9     0.50709   800.02411   810.75982 
   0  21  11     0.47485    51.80464    52.80371 
   0  21  13     0.44324    47.75863    47.92363 
   0  21  15     0.41330   100.86865    98.24531 
   0  21  17     0.38553   140.55880   139.59535 
   0  22   0     0.57214    90.58519    89.87759 
   0  22   2     0.56710   143.43356   141.75164 
   0  22   4     0.55273   265.64257   264.66379 
   0  22   6     0.53103   210.99440   207.59233 
   0  22   8     0.50454  1557.36293  1566.75097 
   0  22  10     0.47567   573.52289   587.44811 
   0  22  12     0.44631   434.69460   433.27425 
   0  22  14     0.41776   604.59176   588.38100 
   0  22  16     0.39077    33.66025    33.54031 
   0  23   1     0.54615   150.94782   149.81555 
   0  23   3     0.53747    25.37353    25.07253 
   0  23   5     0.52128    34.77924    34.71799 
   0  23   7     0.49952   600.37143   608.43278 
   0  23   9     0.47434    62.12155    63.20663 
   0  23  11     0.44765    70.47487    70.62050 
   0  23  13     0.42087    45.29565    44.01836 
   0  23  15     0.39498   138.64178   137.91536 
   0  24   0     0.52446   297.61718   300.01869 
   0  24   2     0.52057  1433.97375  1435.99383 
   0  24   4     0.50939   358.75519   361.58835 
   0  24   6     0.49225     1.90465     1.94160 
   0  24   8     0.47093   152.20582   157.69843 
   0  24  10     0.44720    31.49104    31.58409 
   0  24  12     0.42254    11.31456    11.09341 
   0  24  14     0.39807   517.71289   505.54951 
   0  24  16     0.37452    37.18745    38.50673 
   0  25   1     0.50262    23.30634    23.60416 
   0  25   3     0.49583    73.21889    74.86716 
   0  25   5     0.48303   177.32239   183.03745 
   0  25   7     0.46557    35.37205    36.34166 
   0  25   9     0.44498   408.82141   409.49266 
   0  25  11     0.42272    66.10008    64.78559 
   0  25  13     0.39996     5.34996     5.25875 
   0  25  15     0.37754    36.69928    37.18871 
   0  26   0     0.48412   281.03941   288.34099 
   0  26   2     0.48105    29.47889    30.15756 
   0  26   4     0.47219    95.54584    98.21411 
   0  26   6     0.45844    84.65543    84.93110 
   0  26   8     0.44107  1647.08100  1650.54462 
   0  26  10     0.42139   481.29580   468.51206 
   0  26  12     0.40058   398.72167   392.15994 
   0  26  14     0.37955   749.14700   753.84668 
   0  27   1     0.46550    33.19736    34.11656 
   0  27   3     0.46009    12.31225    12.35760 
   0  27   5     0.44981    24.31813    24.60261 
   0  27   7     0.43561   209.87841   208.72209 
   0  27   9     0.41861    50.93295    49.63254 
   0  27  11     0.39991    27.20130    26.73979 
   0  27  13     0.38048     7.56909     7.63507 
   0  28   0     0.44954   365.97305   369.29390 
   0  28   2     0.44708  2011.08491  2016.22077 
   0  28   4     0.43994   632.70381   631.97080 
   0  28   6     0.42876     2.15368     2.13055 
   0  28   8     0.41445   308.29273   301.87584 
   0  28  10     0.39799    15.21503    14.85925 
   0  28  12     0.38032    13.00263    13.11794 
   0  29   1     0.43348     0.33005     0.32559 
   0  29   3     0.42910    35.69559    35.24584 
   0  29   5     0.42073    88.47130    85.95234 
   0  29   7     0.40904    80.04347    77.97783 
   0  29   9     0.39486   118.97583   118.47478 
   0  29  11     0.37906    31.65598    31.88637 
   0  30   0     0.41957   257.66467   251.65270 
   0  30   2     0.41757    26.71618    26.00455 
   0  30   4     0.41173    55.64436    54.56591 
   0  30   6     0.40252    31.44319    30.64246 
   0  30   8     0.39061  1345.11429  1340.60407 
   0  30  10     0.37675   330.75775   334.72190 
   0  31   1     0.40558     0.79047     0.77508 
   0  31   3     0.40199    42.85787    41.76933 
   0  31   5     0.39508    78.42689    77.94630 
   0  31   7     0.38535    65.52106    65.09318 
   0  31   9     0.37343    74.58798    78.72135 
   0  32   0     0.39335   228.64141   227.74988 
   0  32   2     0.39170  1535.82237  1533.08687 
   0  32   4     0.38687   515.84395   517.72319 
   0  32   6     0.37920     2.97152     2.99091 
   0  33   1     0.38105    38.56282    38.90081 
   0  33   3     0.37807    32.37134    32.81199 
   0  33   5     0.37230    68.75524    74.15185 
   1   0   2     3.84979    41.99879    41.47304 
   1   0   3     2.71449    57.17126    54.66073 
   1   0   4     2.07949  1159.21554  1156.02184 
   1   0   5     1.68053   324.90409   324.02634 
   1   0   6     1.40829   135.82380   134.48109 
   1   0   7     1.21121     0.21402     0.21362 
   1   0   8     1.06217   168.56496   171.11228 
   1   0   9     0.94559   372.41333   373.50559 
   1   0  10     0.85196   351.13270   348.07473 
   1   0  11     0.77514    42.19948    41.65321 
   1   0  12     0.71099   153.83218   156.46053 
   1   0  13     0.65661   435.45661   436.88359 
   1   0  14     0.60994    32.73553    32.27870 
   1   0  15     0.56946   210.86372   208.09250 
   1   0  16     0.53400    70.72756    70.42002 
   1   0  17     0.50269   904.40734   915.00308 
   1   0  18     0.47485   128.43113   130.90681 
   1   0  19     0.44993  1643.23175  1664.15967 
   1   0  20     0.42748    83.33140    83.12549 
   1   0  21     0.40717   199.53273   195.83978 
   1   0  22     0.38870     1.93350     1.93105 
   1   1   2     3.68144   213.61121   222.29065 
   1   1   3     2.65349    51.32543    49.86285 
   1   1   4     2.05168   238.97486   238.78997 
   1   1   5     1.66575   238.63157   237.23397 
   1   1   6     1.39955  1029.34053  1038.60760 
   1   1   7     1.20564   740.80926   751.33974 
   1   1   8     1.05840   433.56794   433.73347 
   1   1   9     0.94293   349.73697   349.89387 
   1   1  10     0.85002  1524.91847  1511.88014 
   1   1  11     0.77368    50.63280    50.74380 
   1   1  12     0.70985    74.05939    75.14097 
   1   1  13     0.65572    34.78810    34.90908 
   1   1  14     0.60923  1311.69475  1292.21695 
   1   1  15     0.56888     8.96760     8.83330 
   1   1  16     0.53352   497.28816   494.72207 
   1   1  17     0.50229    42.89576    43.59948 
   1   1  18     0.47451   184.01673   187.23378 
   1   1  19     0.44964     6.27596     6.33888 
   1   1  20     0.42724   107.13150   106.77799 
   1   1  21     0.40696     0.01241     0.01216 
   1   1  22     0.38852   128.31893   128.18129 
   1   2   1     4.39483  6156.24958  6292.16317 
   1   2   2     3.28409  1566.48998  1561.00369 
   1   2   3     2.49253  1886.03461  1845.40656 
   1   2   4     1.97450    22.08739    22.18424 
   1   2   5     1.62364  2259.00405  2243.48943 
   1   2   6     1.37430  1379.92160  1390.13146 
   1   2   7     1.18939  2068.30953  2084.10895 
   1   2   8     1.04736   488.85186   492.01500 
   1   2   9     0.93510   794.44837   796.79240 
   1   2  10     0.84426   189.72663   188.03743 
   1   2  11     0.76933   319.02582   319.41512 
   1   2  12     0.70649   507.03649   515.54507 
   1   2  13     0.65307   804.50328   801.40965 
   1   2  14     0.60710    90.99559    90.17303 
   1   2  15     0.56714   564.67267   557.95557 
   1   2  16     0.53209     8.40187     8.32651 
   1   2  17     0.50110   109.46332   111.19812 
   1   2  18     0.47350   393.01224   401.01119 
   1   2  19     0.44878     3.20698     3.22019 
   1   2  20     0.42650   352.81933   348.09231 
   1   2  21     0.40632   212.82050   207.96545 
   1   2  22     0.38796    41.06792    41.15128 
   1   3   1     3.46411     0.70798     0.66779 
   1   3   2     2.83663    39.55097    41.69435 
   1   3   3     2.27910   238.37895   239.78631 
   1   3   4     1.86321   133.87333   133.73466 
   1   3   5     1.56004     1.40847     1.40966 
   1   3   6     1.33509   458.86601   456.37977 
   1   3   7     1.16370   375.16346   371.27165 
   1   3   8     1.02968   673.37184   657.29933 
   1   3   9     0.92245   170.93545   169.44788 
   1   3  10     0.83493  1352.77298  1340.72271 
   1   3  11     0.76224   117.93260   119.51156 
   1   3  12     0.70099   147.00840   150.53231 
   1   3  13     0.64872    37.16926    37.24895 
   1   3  14     0.60360  1078.30308  1072.07869 
   1   3  15     0.56428    48.83001    48.54325 
   1   3  16     0.52973   377.53130   372.23429 
   1   3  17     0.49912   192.16435   194.84068 
   1   3  18     0.47184   115.01109   118.52772 
   1   3  19     0.44736    19.56774    19.62765 
   1   3  20     0.42528   175.28351   172.44595 
   1   3  21     0.40527    23.11547    22.74337 
   1   3  22     0.38704   110.50927   111.02344 
   1   4   1     2.80040    76.60439    81.05380 
   1   4   2     2.43642     8.88461     9.04118 
   1   4   3     2.05542  1945.85258  1930.44999 
   1   4   4     1.73490   644.07215   639.61289 
   1   4   5     1.48238     0.01274     0.01276 
   1   4   6     1.28543    13.06215    12.94958 
   1   4   7     1.13037   176.22355   176.51378 
   1   4   8     1.00638     7.91171     7.80101 
   1   4   9     0.90559   982.67696   981.28876 
   1   4  10     0.82236   271.57177   272.32706 
   1   4  11     0.75264   146.33662   147.71080 
   1   4  12     0.69351   342.15659   343.08029 
   1   4  13     0.64277   910.70978   906.74231 
   1   4  14     0.59880    57.34136    56.60377 
   1   4  15     0.56036   526.26114   518.76951 
   1   4  16     0.52647   146.00839   144.90758 
   1   4  17     0.49640  1952.56456  1985.29203 
   1   4  18     0.46953   188.55840   196.17936 
   1   4  19     0.44540  3292.51907  3294.85243 
   1   4  20     0.42359   143.80928   140.92221 
   1   4  21     0.40381   490.52255   484.13896 
   1   4  22     0.38577     2.79731     2.77922 
   1   5   1     2.32924   117.84402   120.69231 
   1   5   2     2.10695    37.16679    36.80738 
   1   5   3     1.84583    20.92955    21.08176 
   1   5   4     1.60325    25.16723    24.95880 
   1   5   5     1.39771   104.85791   106.19505 
   1   5   6     1.22904   253.64897   252.98373 
   1   5   7     1.09145     7.18684     7.19858 
   1   5   8     0.97862   848.67853   845.97429 
   1   5   9     0.88520   110.75569   109.84931 
   1   5  10     0.80700  1924.78894  1926.54297 
   1   5  11     0.74082    19.14590    19.28264 
   1   5  12     0.68422    30.52911    31.08901 
   1   5  13     0.63536   237.05236   237.09893 
   1   5  14     0.59279  1072.78491  1066.15000 
   1   5  15     0.55542   118.39593   116.80096 
   1   5  16     0.52238   373.88226   372.07173 
   1   5  17     0.49296    22.62152    23.21581 
   1   5  18     0.46662   312.79214   319.99366 
   1   5  19     0.44291   138.09618   138.55577 
   1   5  20     0.42145    84.76199    82.53172 
   1   5  21     0.40195    15.42781    15.03992 
   1   5  22     0.38415   165.84575   166.43632 
   1   6   1     1.98517   532.07084   523.19013 
   1   6   2     1.84211   400.56604   401.25151 
   1   6   3     1.65991     0.00119     0.00119 
   1   6   4     1.47687   606.54807   605.72090 
   1   6   5     1.31159   283.41831   282.71109 
   1   6   6     1.16926    83.21703    83.79630 
   1   6   7     1.04894   752.15771   762.45466 
   1   6   8     0.94763     4.27813     4.31374 
   1   6   9     0.86207   421.05480   419.48293 
   1   6  10     0.78935   426.29259   424.48604 
   1   6  11     0.72710   247.95719   249.62143 
   1   6  12     0.67337   226.29115   227.86740 
   1   6  13     0.62663   634.05715   626.91763 
   1   6  14     0.58569    56.09815    54.86847 
   1   6  15     0.54957   408.42081   403.19026 
   1   6  16     0.51750     0.68003     0.69028 
   1   6  17     0.48886   110.27758   112.51113 
   1   6  18     0.46313   308.60737   313.72124 
   1   6  19     0.43992     0.02200     0.02198 
   1   6  20     0.41888   221.18339   215.81188 
   1   6  21     0.39971   157.26826   154.67161 
   1   6  22     0.38220    27.48763    27.73128 
   1   7   1     1.72568     1.88946     1.88897 
   1   7   2     1.62921    20.23807    20.19964 
   1   7   3     1.49909   350.09216   346.29533 
   1   7   4     1.36017    10.41234    10.45873 
   1   7   5     1.22779   294.30456   293.86038 
   1   7   6     1.10872    13.39362    13.54857 
   1   7   7     1.00457     6.90478     6.81736 
   1   7   8     0.91453  1119.46809  1111.90651 
   1   7   9     0.83693     3.54950     3.53587 
   1   7  10     0.76992  1265.86380  1267.16406 
   1   7  11     0.71182  1170.49633  1187.91077 
   1   7  12     0.66118   341.81309   344.98291 
   1   7  13     0.61678     0.92223     0.92166 
   1   7  14     0.57762   800.89183   788.67020 
   1   7  15     0.54288   207.01503   204.52320 
   1   7  16     0.51191   239.55954   240.15691 
   1   7  17     0.48413   478.28400   490.68047 
   1   7  18     0.45911    50.96528    51.08603 
   1   7  19     0.43647    79.77308    79.14975 
   1   7  20     0.41589   252.21264   247.00398 
   1   7  21     0.39712    88.47332    86.95997 
   1   7  22     0.37993    99.96045   100.74627 
   1   8   1     1.52414   399.40711   402.35699 
   1   8   2     1.45645    30.40076    30.52906 
   1   8   3     1.36125  3501.79767  3515.12560 
   1   8   4     1.25471   125.68763   126.02461 
   1   8   5     1.14856   413.85944   410.27126 
   1   8   6     1.04934   104.66800   106.01275 
   1   8   7     0.95977   588.48099   593.41450 
   1   8   8     0.88034    20.45123    20.54900 
   1   8   9     0.81048  1195.12018  1184.23397 
   1   8  10     0.74918    53.78041    54.06286 
   1   8  11     0.69534   316.69467   319.35830 
   1   8  12     0.64791   238.84859   238.09821 
   1   8  13     0.60596   887.92545   886.55603 
   1   8  14     0.56871    27.71088    27.30247 
   1   8  15     0.53546   666.84018   664.14527 
   1   8  16     0.50567   106.75278   107.23548 
   1   8  17     0.47885  2006.63392  2042.06254 
   1   8  18     0.45460    77.63747    78.46866 
   1   8  19     0.43259  2951.96043  2919.68869 
   1   8  20     0.41253    80.15558    78.26036 
   1   8  21     0.39419   670.40569   668.42175 
   1   8  22     0.37736     0.48710     0.49324 
   1   9   1     1.36364    70.18397    70.12694 
   1   9   2     1.31452    87.14410    87.15394 
   1   9   3     1.24326   251.42077   252.42554 
   1   9   4     1.16052    27.15282    26.87163 
   1   9   5     1.07500   202.40918   204.01186 
   1   9   6     0.99236   200.82227   203.88395 
   1   9   7     0.91559     2.98404     2.95117 
   1   9   8     0.84587   716.98567   709.33808 
   1   9   9     0.78335   254.37502   253.99154 
   1   9  10     0.72759  2014.37504  2032.92610 
   1   9  11     0.67797     3.12604     3.16587 
   1   9  12     0.63379    76.11556    75.91107 
   1   9  13     0.59437   513.98266   503.99746 
   1   9  14     0.55909  1081.45652  1062.41001 
   1   9  15     0.52741   141.04090   139.49475 
   1   9  16     0.49887   382.81607   388.10185 
   1   9  17     0.47306     0.70333     0.71851 
   1   9  18     0.44964   294.60477   297.56519 
   1   9  19     0.42831   335.39473   332.78036 
   1   9  20     0.40881    52.45386    51.22242 
   1   9  21     0.39094    47.24411    47.07580 
   1   9  22     0.37451   188.43285   195.14441 
   1  10   1     1.23307  1440.64341  1455.03963 
   1  10   2     1.19639   412.57451   411.85875 
   1  10   3     1.14192   221.32875   219.67269 
   1  10   4     1.07681    21.17296    21.45504 
   1  10   5     1.00745   561.81542   555.97802 
   1  10   6     0.93849   240.90731   241.41800 
   1  10   7     0.87277   731.99570   729.20893 
   1  10   8     0.81176    65.88240    65.14989 
   1  10   9     0.75602   376.46767   376.71155 
   1  10  10     0.70554   108.39463   109.69386 
   1  10  11     0.66003   286.00744   288.47124 
   1  10  12     0.61906    84.03802    83.96816 
   1  10  13     0.58216   530.01442   525.19807 
   1  10  14     0.54889    19.83667    19.59065 
   1  10  15     0.51883   347.84591   347.48414 
   1  10  16     0.49159     0.09003     0.09160 
   1  10  17     0.46684    34.49116    35.26781 
   1  10  18     0.44429   135.16486   135.17242 
   1  10  19     0.42367     0.00790     0.00775 
   1  10  20     0.40478    76.58123    75.69020 
   1  10  21     0.38741   137.56856   138.26001 
   1  11   1     1.12492   128.02728   128.56759 
   1  11   2     1.09686     4.69941     4.76937 
   1  11   3     1.05443   449.70568   453.40427 
   1  11   4     1.00253   373.05949   373.34533 
   1  11   5     0.94584   209.96860   210.76693 
   1  11   6     0.88808    91.07676    90.80451 
   1  11   7     0.83179   229.04437   228.67038 
   1  11   8     0.77848   584.45261   587.31785 
   1  11   9     0.72892   239.71402   243.72036 
   1  11  10     0.68336   834.88497   844.81679 
   1  11  11     0.64176   618.34834   614.66894 
   1  11  12     0.60391   716.95137   712.60078 
   1  11  13     0.56951   107.13299   105.75629 
   1  11  14     0.53825   803.99509   798.33663 
   1  11  15     0.50982    86.30269    86.74984 
   1  11  16     0.48390   257.21831   264.24187 
   1  11  17     0.46024   474.95911   476.80633 
   1  11  18     0.43859     0.19340     0.19325 
   1  11  19     0.41872   180.97301   176.44297 
   1  11  20     0.40045   248.02440   243.85004 
   1  11  21     0.38361   132.52324   133.55104 
   1  12   1     1.03395   220.68435   220.15723 
   1  12   2     1.01204   141.80577   141.65777 
   1  12   3     0.97842   312.17067   310.89713 
   1  12   4     0.93653   596.01340   596.75993 
   1  12   5     0.88982    14.06096    14.14064 
   1  12   6     0.84123   234.16288   231.86988 
   1  12   7     0.79292   166.42837   165.47273 
   1  12   8     0.74634   146.48070   146.52636 
   1  12   9     0.70233   656.09842   667.67258 
   1  12  10     0.66131    96.51582    97.44087 
   1  12  11     0.62339   360.00314   356.65336 
   1  12  12     0.58853    25.78890    25.58965 
   1  12  13     0.55656   639.23162   629.16817 
   1  12  14     0.52728     4.90265     4.85099 
   1  12  15     0.50046   674.66557   683.86099 
   1  12  16     0.47588    37.94012    38.90150 
   1  12  17     0.45332  1803.02762  1824.63197 
   1  12  18     0.43259    11.15453    11.03290 
   1  12  19     0.41349  2259.52767  2202.49390 
   1  12  20     0.39587    13.11097    12.95645 
   1  12  21     0.37958   836.88869   842.20649 
   1  13   1     0.95642    38.11212    37.98266 
   1  13   2     0.93900   351.40958   352.06049 
   1  13   3     0.91196   315.10263   317.66944 
   1  13   4     0.87776    60.92838    60.76120 
   1  13   5     0.83896   744.79714   737.96884 
   1  13   6     0.79786   564.56989   559.92082 
   1  13   7     0.75629   139.09906   139.07011 
   1  13   8     0.71556   184.57899   185.39350 
   1  13   9     0.67650     0.09232     0.09394 
   1  13  10     0.63961  1404.98291  1391.01122 
   1  13  11     0.60512   497.74381   496.31855 
   1  13  12     0.57308   115.68334   113.97255 
   1  13  13     0.54344   194.59886   192.63084 
   1  13  14     0.51608  1004.82347  1023.68498 
   1  13  15     0.49086    16.59334    16.92091 
   1  13  16     0.46760   390.51857   398.18017 
   1  13  17     0.44615    40.28041    40.12054 
   1  13  18     0.42634   200.12675   197.08037 
   1  13  19     0.40802   377.90222   370.91755 
   1  13  20     0.39106    29.22864    29.12827 
   1  13  21     0.37533    83.61029    85.82115 
   1  14   1     0.88959  4234.91546  4259.34511 
   1  14   2     0.87552   375.15520   376.23443 
   1  14   3     0.85348  1775.07889  1777.46319 
   1  14   4     0.82525   322.32383   320.99609 
   1  14   5     0.79276  1953.80600  1942.77160 
   1  14   6     0.75781   529.87555   529.96474 
   1  14   7     0.72193  1448.59852  1452.17730 
   1  14   8     0.68624   282.34646   285.63960 
   1  14   9     0.65157   730.23351   729.51753 
   1  14  10     0.61842    17.67179    17.76037 
   1  14  11     0.58708   608.41465   596.02586 
   1  14  12     0.55768    15.54773    15.27211 
   1  14  13     0.53026   541.63024   532.35104 
   1  14  14     0.50475     0.00139     0.00140 
   1  14  15     0.48108   339.70146   347.59988 
   1  14  16     0.45912     2.71026     2.71660 
   1  14  17     0.43877     0.07727     0.07722 
   1  14  18     0.41989    13.79910    13.45815 
   1  14  19     0.40236     0.23812     0.23190 
   1  14  20     0.38607     4.41682     4.39663 
   1  15   1     0.83141    63.78491    63.61688 
   1  15   2     0.81989    17.59608    17.52928 
   1  15   3     0.80171   706.35158   705.11066 
   1  15   4     0.77817   634.06800   637.22565 
   1  15   5     0.75075    80.91092    81.37893 
   1  15   6     0.72087   113.74866   114.15409 
   1  15   7     0.68977   444.35033   450.92753 
   1  15   8     0.65845   227.06752   230.13300 
   1  15   9     0.62764   576.67948   574.13485 
   1  15  10     0.59785   380.06233   372.56390 
   1  15  11     0.56939   278.11492   274.36193 
   1  15  12     0.54246   753.59920   743.51229 
   1  15  13     0.51712   293.01462   298.05426 
   1  15  14     0.49338   555.60897   572.25625 
   1  15  15     0.47120    12.93697    13.37526 
   1  15  16     0.45052   175.72394   178.20214 
   1  15  17     0.43124   331.82610   326.71834 
   1  15  18     0.41327     9.24556     9.00453 
   1  15  19     0.39652   256.05075   252.76734 
   1  15  20     0.38091   229.25694   231.19065 
   1  16   1     0.78032   111.66617   111.41844 
   1  16   2     0.77077   213.34893   214.10887 
   1  16   3     0.75560    39.91140    40.01078 
   1  16   4     0.73580   157.43511   157.72318 
   1  16   5     0.71249    12.56777    12.73773 
   1  16   6     0.68680   307.73153   311.73597 
   1  16   7     0.65975    39.87527    40.26065 
   1  16   8     0.63218   144.39014   144.63481 
   1  16   9     0.60476   224.89355   224.21263 
   1  16  10     0.57798    10.05454     9.91590 
   1  16  11     0.55215   305.61210   304.15011 
   1  16  12     0.52748    14.22925    14.06990 
   1  16  13     0.50410   384.06577   385.74055 
   1  16  14     0.48203     0.46391     0.47775 
   1  16  15     0.46129   695.58515   698.13709 
   1  16  16     0.44183     6.31135     6.33278 
   1  16  17     0.42360  1719.88667  1685.40887 
   1  16  18     0.40653     9.26058     9.05500 
   1  16  19     0.39056  1733.61100  1727.95783 
   1  16  20     0.37561     6.14656     6.28993 
   1  17   1     0.73509   194.64332   196.80067 
   1  17   2     0.72709   229.81638   231.35729 
   1  17   3     0.71432   165.14630   166.02773 
   1  17   4     0.69752    15.66513    15.92896 
   1  17   5     0.67757   716.24368   726.96281 
   1  17   6     0.65536   277.68617   277.69644 
   1  17   7     0.63173    45.52277    45.58146 
   1  17   8     0.60741   100.43187    98.97029 
   1  17   9     0.58297    26.32819    26.23961 
   1  17  10     0.55886   913.76067   896.22231 
   1  17  11     0.53541   378.75646   377.41182 
   1  17  12     0.51283    89.44565    89.99228 
   1  17  13     0.49126   234.63611   238.86382 
   1  17  14     0.47078   601.01824   623.51141 
   1  17  15     0.45139    13.00990    13.12011 
   1  17  16     0.43311   217.90802   215.69309 
   1  17  17     0.41590    65.77239    64.41474 
   1  17  18     0.39971   173.25515   170.39462 
   1  17  19     0.38450   329.39470   329.15339 
   1  18   1     0.69479  1628.30520  1640.55770 
   1  18   2     0.68803     5.54171     5.63337 
   1  18   3     0.67718   628.85640   639.39119 
   1  18   4     0.66281   182.13468   183.93515 
   1  18   5     0.64562  1283.09984  1278.62022 
   1  18   6     0.62632    10.85144    10.74181 
   1  18   7     0.60560  1102.35423  1100.15660 
   1  18   8     0.58407    18.87866    18.59848 
   1  18   9     0.56224   762.83783   751.95862 
   1  18  10     0.54053    39.86908    39.39976 
   1  18  11     0.51922   909.81386   903.35110 
   1  18  12     0.49856    33.18339    33.61155 
   1  18  13     0.47867   475.10077   483.58422 
   1  18  14     0.45966    12.98503    13.01712 
   1  18  15     0.44157   281.66067   282.80996 
   1  18  16     0.42441    16.10136    15.80155 
   1  18  17     0.40817    18.42345    18.07182 
   1  18  18     0.39284    10.28673    10.26033 
   1  18  19     0.37837     1.04964     1.06245 
   1  19   1     0.65866     0.98021     0.99443 
   1  19   2     0.65288     0.00108     0.00107 
   1  19   3     0.64359   642.05211   641.66963 
   1  19   4     0.63122   277.82781   277.70393 
   1  19   5     0.61632   116.73901   115.94258 
   1  19   6     0.59946     1.17277     1.15711 
   1  19   7     0.58122    92.29012    91.51993 
   1  19   8     0.56211   244.34706   240.50961 
   1  19   9     0.54257   127.58891   125.91607 
   1  19  10     0.52298   289.22718   289.77436 
   1  19  11     0.50361   513.83413   515.88804 
   1  19  12     0.48469   710.06170   727.23866 
   1  19  13     0.46636    65.50073    67.05528 
   1  19  14     0.44872   350.68744   351.98194 
   1  19  15     0.43184    38.91575    38.19269 
   1  19  16     0.41575    89.35164    87.48108 
   1  19  17     0.40046   293.64303   288.70521 
   1  19  18     0.38595    10.55063    10.49280 
   1  19  19     0.37220   178.36126   192.68673 
   1  20   1     0.62608   362.59770   359.34846 
   1  20   2     0.62111   135.36291   134.64926 
   1  20   3     0.61309   431.02990   424.57082 
   1  20   4     0.60237    58.91650    58.67178 
   1  20   5     0.58938   495.38769   492.44352 
   1  20   6     0.57459    74.27381    73.19264 
   1  20   7     0.55847   211.10361   206.67178 
   1  20   8     0.54145     5.24198     5.17855 
   1  20   9     0.52392   217.26841   218.67458 
   1  20  10     0.50621    94.82944    95.60580 
   1  20  11     0.48859   439.60481   447.85570 
   1  20  12     0.47125    63.46070    65.58753 
   1  20  13     0.45435   302.41211   305.59840 
   1  20  14     0.43800    19.50153    19.42079 
   1  20  15     0.42226   767.85984   752.18283 
   1  20  16     0.40718     0.33148     0.32536 
   1  20  17     0.39278  1724.13811  1720.04327 
   1  20  18     0.37906    88.34018    88.98346 
   1  21   1     0.59655   142.00183   138.96652 
   1  21   2     0.59225   136.68982   136.31276 
   1  21   3     0.58529   120.91797   118.21336 
   1  21   4     0.57594     3.88201     3.82206 
   1  21   5     0.56455   329.32791   327.27219 
   1  21   6     0.55151    78.09875    77.69024 
   1  21   7     0.53721     0.43997     0.43374 
   1  21   8     0.52201   115.29701   114.30721 
   1  21   9     0.50625   132.43646   133.56560 
   1  21  10     0.49022   747.07234   763.03752 
   1  21  11     0.47416    74.44109    75.78186 
   1  21  12     0.45827   168.38674   168.97129 
   1  21  13     0.44268   337.92601   338.91402 
   1  21  14     0.42751   440.81932   439.68813 
   1  21  15     0.41284    54.96629    53.57004 
   1  21  16     0.39872   139.91073   136.96382 
   1  21  17     0.38517    20.19717    20.08014 
   1  21  18     0.37220   112.49251   121.52482 
   1  22   1     0.56967   669.50591   661.32646 
   1  22   2     0.56593    35.51155    34.93706 
   1  22   3     0.55984   162.70527   160.38787 
   1  22   4     0.55164   296.74236   295.04974 
   1  22   5     0.54161   731.08038   722.03692 
   1  22   6     0.53007    30.39650    29.91370 
   1  22   7     0.51733   570.72830   579.80657 
   1  22   8     0.50371     3.04964     3.06184 
   1  22   9     0.48951   478.80186   489.31399 
   1  22  10     0.47498    78.07945    79.65361 
   1  22  11     0.46033   908.83294   912.43097 
   1  22  12     0.44574   196.10974   195.64566 
   1  22  13     0.43136   325.53005   320.26316 
   1  22  14     0.41729    28.52701    27.78479 
   1  22  15     0.40361   223.29751   220.10047 
   1  22  16     0.39038    31.15523    31.06915 
   1  22  17     0.37764    58.68834    59.49102 
   1  23   1     0.54511    14.73971    14.59552 
   1  23   2     0.54182    10.31675    10.18754 
   1  23   3     0.53647   238.98451   235.41856 
   1  23   4     0.52925   249.20293   246.05352 
   1  23   5     0.52037    69.81933    69.76117 
   1  23   6     0.51010     1.89383     1.90164 
   1  23   7     0.49872    30.05242    30.45742 
   1  23   8     0.48649   173.08300   176.83034 
   1  23   9     0.47366    44.02530    44.90741 
   1  23  10     0.46045   309.32460   310.56224 
   1  23  11     0.44707   324.32543   325.14131 
   1  23  12     0.43367   754.80575   744.18598 
   1  23  13     0.42039     4.49751     4.37159 
   1  23  14     0.40734   386.78024   379.93299 
   1  23  15     0.39459    46.62350    46.50172 
   1  23  16     0.38220   106.29017   107.23122 
   1  24   1     0.52256   384.63703   383.67808 
   1  24   2     0.51966   316.93994   314.12916 
   1  24   3     0.51494   235.47573   238.99633 
   1  24   4     0.50854    73.94226    74.82123 
   1  24   5     0.50065   651.43095   660.42247 
   1  24   6     0.49149   248.84684   253.19619 
   1  24   7     0.48128   278.37880   285.30367 
   1  24   8     0.47026    32.80479    34.11187 
   1  24   9     0.45864   212.72206   213.37939 
   1  24  10     0.44662   173.25813   173.11199 
   1  24  11     0.43438   590.20736   587.00420 
   1  24  12     0.42206   162.21398   158.67511 
   1  24  13     0.40979   275.12333   267.12804 
   1  24  14     0.39767    48.08919    47.04105 
   1  24  15     0.38578   782.86327   777.84135 
   1  24  16     0.37418    11.50905    11.97305 
   1  25   1     0.50180    11.47140    11.69115 
   1  25   2     0.49923   157.44303   159.62390 
   1  25   3     0.49504    65.53966    67.41855 
   1  25   4     0.48935    80.52359    82.26951 
   1  25   5     0.48230   137.70708   142.11280 
   1  25   6     0.47410    99.67399   101.49647 
   1  25   7     0.46492     6.37929     6.54478 
   1  25   8     0.45496    39.78051    40.27515 
   1  25   9     0.44441    19.16102    19.16223 
   1  25  10     0.43345   471.03166   464.77453 
   1  25  11     0.42223    41.05287    40.20936 
   1  25  12     0.41089   271.90560   265.41871 
   1  25  13     0.39954   120.67811   118.71546 
   1  25  14     0.38829   384.59149   384.52131 
   1  25  15     0.37720    36.63729    37.08118 
   1  26   1     0.48262  1056.29908  1091.84576 
   1  26   2     0.48034    34.90846    35.48255 
   1  26   3     0.47660   357.89942   367.36860 
   1  26   4     0.47151   744.02343   767.95000 
   1  26   5     0.46520  1047.21737  1076.35711 
   1  26   6     0.45782     1.97976     1.98942 
   1  26   7     0.44954   637.62548   643.41584 
   1  26   8     0.44052     5.83057     5.82244 
   1  26   9     0.43093   493.30867   486.48525 
   1  26  10     0.42091   240.52717   233.77007 
   1  26  11     0.41062  1013.10845   986.69745 
   1  26  12     0.40016   253.89276   249.50359 
   1  26  13     0.38966   270.32476   270.24163 
   1  26  14     0.37919    46.43019    46.73368 
   1  27   1     0.46485    10.84014    11.11304 
   1  27   2     0.46281    55.21069    55.93704 
   1  27   3     0.45946    47.70272    47.80214 
   1  27   4     0.45490   242.85545   245.78147 
   1  27   5     0.44923     1.17023     1.17793 
   1  27   6     0.44257    36.35025    36.44918 
   1  27   7     0.43508    34.17911    34.13953 
   1  27   8     0.42688    52.75467    52.36262 
   1  27   9     0.41814    43.19132    42.03437 
   1  27  10     0.40897   241.34435   235.28379 
   1  27  11     0.39950    37.16797    36.56325 
   1  27  12     0.38986   558.01930   557.54815 
   1  27  13     0.38012     0.51202     0.51643 
   1  28   1     0.44834   256.11685   256.30235 
   1  28   2     0.44651   408.56507   407.80831 
   1  28   3     0.44350    63.12918    63.31382 
   1  28   4     0.43939    69.36250    69.35839 
   1  28   5     0.43427   441.27008   438.09475 
   1  28   6     0.42825   397.98265   395.05358 
   1  28   7     0.42145   142.59471   138.84213 
   1  28   8     0.41399    87.15082    85.21190 
   1  28   9     0.40600    91.21995    89.16527 
   1  28  10     0.39759   151.45017   148.24665 
   1  28  11     0.38888   496.28115   495.74346 
   1  28  12     0.37996   264.35452   266.47556 
   1  29   1     0.43296     1.80283     1.78634 
   1  29   2     0.43131   104.43271   102.77857 
   1  29   3     0.42859     0.01639     0.01623 
   1  29   4     0.42488   155.75575   153.07540 
   1  29   5     0.42025    29.39241    28.59233 
   1  29   6     0.41479    84.17447    82.42566 
   1  29   7     0.40860    21.24124    20.78663 
   1  29   8     0.40179     6.79786     6.63691 
   1  29   9     0.39447     1.41880     1.41535 
   1  29  10     0.38674   197.78440   198.30280 
   1  29  11     0.37871     3.11613     3.14708 
   1  30   1     0.41860   854.72509   832.86077 
   1  30   2     0.41710    65.99048    64.32703 
   1  30   3     0.41465   338.87809   331.86086 
   1  30   4     0.41128   652.07701   638.60278 
   1  30   5     0.40708  1125.02095  1103.55739 
   1  30   6     0.40210    10.46588    10.19386 
   1  30   7     0.39646   758.15378   748.60989 
   1  30   8     0.39023     2.17505     2.17019 
   1  30   9     0.38351   630.83111   635.86446 
   1  30  10     0.37640   270.14457   273.93311 
   1  31   1     0.40515     6.57462     6.47689 
   1  31   2     0.40380    75.96113    74.96858 
   1  31   3     0.40157     1.21532     1.18965 
   1  31   4     0.39851   117.95573   115.29604 
   1  31   5     0.39468    28.82920    28.74506 
   1  31   6     0.39014    51.43327    51.33510 
   1  31   7     0.38498     6.81334     6.78087 
   1  31   8     0.37927    18.35556    18.47138 
   1  31   9     0.37309     1.29458     1.37538 
   1  32   1     0.39254   480.78491   479.99668 
   1  32   2     0.39131   270.02511   269.21635 
   1  32   3     0.38928   135.53213   135.49241 
   1  32   4     0.38649   125.61540   125.62379 
   1  32   5     0.38300   472.04533   475.79991 
   1  32   6     0.37885   223.49466   225.46986 
   1  32   7     0.37411   125.66115   130.86202 
   1  33   1     0.38069     0.14967     0.15092 
   1  33   2     0.37957    49.24845    49.56050 
   1  33   3     0.37772    60.56085    61.40023 
   1  33   4     0.37517   194.81744   200.32704 
   1  33   5     0.37197     2.24749     2.43651 
   2   0   0     4.40578   869.07246   900.25074 
   2   0   1     3.91733    61.77715    60.22886 
   2   0   2     3.06987  1162.12430  1137.97220 
   2   0   3     2.39489   848.29315   827.92534 
   2   0   4     1.92489   295.14531   299.19015 
   2   0   5     1.59572   870.81858   879.18519 
   2   0   6     1.35724   183.36579   183.91458 
   2   0   7     1.17828   301.58131   305.84125 
   2   0   8     1.03975   250.83746   248.95378 
   2   0   9     0.92967   531.81872   529.94691 
   2   0  10     0.84026    10.74547    10.57615 
   2   0  11     0.76630    26.54850    27.04940 
   2   0  12     0.70414    17.47333    17.73438 
   2   0  13     0.65121    19.51756    19.56006 
   2   0  14     0.60561   753.11478   751.62152 
   2   0  15     0.56592   238.26131   234.40347 
   2   0  16     0.53108    55.75381    54.87453 
   2   0  17     0.50026     2.04434     2.07205 
   2   0  18     0.47280   100.82808   103.14267 
   2   0  19     0.44818    18.77481    18.77618 
   2   0  20     0.42598   605.15689   594.84994 
   2   0  21     0.40587    30.43202    29.76535 
   2   0  22     0.38757    51.91872    52.15196 
   2   1   0     4.15840     0.00611     0.00653 
   2   1   1     3.74038    39.56224    38.28260 
   2   1   2     2.98245   116.12681   107.71232 
   2   1   3     2.35269   577.16165   567.18131 
   2   1   4     1.90277   304.33686   299.60936 
   2   1   5     1.58305   181.05724   182.06962 
   2   1   6     1.34942  1329.98368  1320.71119 
   2   1   7     1.17315   402.54130   409.38554 
   2   1   8     1.03622  2172.38581  2184.64423 
   2   1   9     0.92714  1811.87808  1801.72785 
   2   1  10     0.83840   229.57377   228.19903 
   2   1  11     0.76488    17.27326    17.51730 
   2   1  12     0.70304    69.57995    70.72676 
   2   1  13     0.65034    19.22748    19.40702 
   2   1  14     0.60491     6.22669     6.20810 
   2   1  15     0.56535   107.04154   105.48190 
   2   1  16     0.53061   340.71509   334.59276 
   2   1  17     0.49986    77.22208    78.24164 
   2   1  18     0.47246   150.98222   154.83336 
   2   1  19     0.44789    85.33530    85.38959 
   2   1  20     0.42574    19.46498    19.13482 
   2   1  21     0.40566     7.83083     7.67184 
   2   1  22     0.38739    10.49331    10.54638 
   2   2   0     3.60928  1235.15189  1258.98967 
   2   2   1     3.32572  1677.85519  1675.56579 
   2   2   2     2.75913   420.65638   421.00455 
   2   2   3     2.23831   519.81598   500.97835 
   2   2   4     1.84072   586.63805   586.59989 
   2   2   5     1.54677   233.17732   235.30715 
   2   2   6     1.32674     0.65759     0.66061 
   2   2   7     1.15816  2604.07968  2615.40183 
   2   2   8     1.02584  3318.81519  3331.44017 
   2   2   9     0.91969     0.08889     0.08871 
   2   2  10     0.83287  1114.48836  1114.79910 
   2   2  11     0.76068    77.17251    77.51088 
   2   2  12     0.69978   974.60509   993.73630 
   2   2  13     0.64775   225.79431   224.78728 
   2   2  14     0.60282  1223.99147  1220.75367 
   2   2  15     0.56365    79.51825    78.91018 
   2   2  16     0.52920    39.73332    39.23501 
   2   2  17     0.49869   490.85979   497.41946 
   2   2  18     0.47147  1628.57779  1681.26867 
   2   2  19     0.44704     8.53762     8.55803 
   2   2  20     0.42501   458.59281   450.91542 
   2   2  21     0.40503   194.66290   192.00325 
   2   2  22     0.38684    66.88165    67.11255 
   2   3   0     3.03837    15.39302    15.01529 
   2   3   1     2.86333     1.99163     1.97712 
   2   3   2     2.47753   219.25711   221.21278 
   2   3   3     2.07992   553.91586   552.08003 
   2   3   4     1.74956   137.49377   138.36254 
   2   3   5     1.49149   192.13040   190.56856 
   2   3   6     1.29136   334.93605   331.87440 
   2   3   7     1.13440   100.66720    99.94238 
   2   3   8     1.00922  1454.81396  1457.59484 
   2   3   9     0.90765  2039.66408  2014.78691 
   2   3  10     0.82390     4.22265     4.24613 
   2   3  11     0.75383     3.18543     3.21519 
   2   3  12     0.69443    16.90862    16.99921 
   2   3  13     0.64351    84.58992    84.49402 
   2   3  14     0.59940     2.86167     2.82352 
   2   3  15     0.56084   250.62866   246.30230 
   2   3  16     0.52688   744.18686   736.99052 
   2   3  17     0.49674   177.22726   179.57373 
   2   3  18     0.46982   137.62451   143.17176 
   2   3  19     0.44564    89.29831    89.16994 
   2   3  20     0.42380     5.39701     5.29377 
   2   3  21     0.40399    44.05198    43.52820 
   2   3  22     0.38593    75.23736    74.81444 
   2   4   0     2.56070  2099.93534  2116.99960 
   2   4   1     2.45327     7.35008     7.45163 
   2   4   2     2.19742  2799.77431  2795.88312 
   2   4   3     1.90575   314.17913   309.95952 
   2   4   4     1.64204   770.16668   768.19598 
   2   4   5     1.42319   183.98512   184.98023 
   2   4   6     1.24626   399.18341   396.56709 
   2   4   7     1.10346     2.67830     2.70393 
   2   4   8     0.98725   395.66345   399.69261 
   2   4   9     0.89157   274.14357   269.18630 
   2   4  10     0.81182    35.36178    34.97372 
   2   4  11     0.74454     1.08361     1.08647 
   2   4  12     0.68715    17.97840    18.24851 
   2   4  13     0.63770    40.15420    39.70739 
   2   4  14     0.59469  1272.01543  1250.29436 
   2   4  15     0.55699   461.01924   453.91665 
   2   4  16     0.52368   115.22356   115.88778 
   2   4  17     0.49405    12.33446    12.74527 
   2   4  18     0.46755   202.90645   206.91041 
   2   4  19     0.44370    26.23985    26.29489 
   2   4  20     0.42213  1138.36770  1114.15629 
   2   4  21     0.40254    48.85125    47.61176 
   2   4  22     0.38466   121.52409   121.23155 
   2   5   0     2.18577    47.28046    49.18799 
   2   5   1     2.11782   120.58163   118.08552 
   2   5   2     1.94661     5.44493     5.55795 
   2   5   3     1.73515   227.97011   226.37237 
   2   5   4     1.52911     2.94547     2.93446 
   2   5   5     1.34777    10.71287    10.64387 
   2   5   6     1.19468   212.36487   210.04917 
   2   5   7     1.06717   419.85378   424.68402 
   2   5   8     0.96101    27.71428    27.85257 
   2   5   9     0.87210   865.71882   861.26775 
   2   5  10     0.79704   131.23094   130.27463 
   2   5  11     0.73309     8.53858     8.66740 
   2   5  12     0.67812   171.34947   173.42650 
   2   5  13     0.63046     0.75022     0.74999 
   2   5  14     0.58881   347.75756   345.08879 
   2   5  15     0.55214     6.64805     6.61605 
   2   5  16     0.51965   386.26639   382.81636 
   2   5  17     0.49066    12.69527    12.95483 
   2   5  18     0.46467   308.86922   315.95858 
   2   5  19     0.44124    64.36301    64.57376 
   2   5  20     0.42001    75.24278    73.31588 
   2   5  21     0.40070     0.79063     0.77789 
   2   5  22     0.38306     1.97661     1.99247 
   2   6   0     1.89409  1357.87578  1384.77962 
   2   6   1     1.84936   670.29056   678.14398 
   2   6   2     1.73206    83.90432    83.82553 
   2   6   3     1.57804     7.81425     7.75164 
   2   6   4     1.41832   318.46998   315.81065 
   2   6   5     1.27006   217.50377   213.98086 
   2   6   6     1.13955     3.63396     3.59582 
   2   6   7     1.02733   349.43153   345.84599 
   2   6   8     0.93160  2998.00007  2966.66218 
   2   6   9     0.84995   220.46038   218.51950 
   2   6  10     0.78002  1377.54196  1376.45207 
   2   6  11     0.71978     0.16174     0.16177 
   2   6  12     0.66754  1157.11537  1163.78637 
   2   6  13     0.62193   137.74626   136.48940 
   2   6  14     0.58185  1205.81896  1192.07546 
   2   6  15     0.54639    24.28879    24.08575 
   2   6  16     0.51484   104.60718   106.09961 
   2   6  17     0.48661   429.00141   437.60889 
   2   6  18     0.46123  1427.20927  1431.80685 
   2   6  19     0.43829     2.27256     2.26816 
   2   6  20     0.41746   449.23311   437.34340 
   2   6  21     0.39848   137.83015   134.70197 
   2   6  22     0.38112   116.93894   117.99087 
   2   7   0     1.66484    98.05589    97.36275 
   2   7   1     1.63422    75.51371    76.04345 
   2   7   2     1.55158   144.08057   146.40580 
   2   7   3     1.43796   358.63232   361.09637 
   2   7   4     1.31401     2.04093     2.04093 
   2   7   5     1.19353   123.34808   121.65034 
   2   7   6     1.08330    83.60520    84.62432 
   2   7   7     0.98554     1.63418     1.64633 
   2   7   8     0.90010   246.57303   245.72047 
   2   7   9     0.82583  1730.13862  1718.87255 
   2   7  10     0.76125   785.83936   791.79672 
   2   7  11     0.70495     0.92192     0.93268 
   2   7  12     0.65566   606.25827   608.12033 
   2   7  13     0.61229   175.53042   173.02033 
   2   7  14     0.57393    45.66394    45.11770 
   2   7  15     0.53982   332.79494   327.60373 
   2   7  16     0.50933  1404.87540  1416.40250 
   2   7  17     0.48195   269.35539   277.23219 
   2   7  18     0.45725   174.62223   176.41760 
   2   7  19     0.43487    78.82155    78.76570 
   2   7  20     0.41451     3.15754     3.09206 
   2   7  21     0.39591    95.28456    94.14775 
   2   7  22     0.37887   182.51569   184.09564 
   2   8   0     1.48174  2560.90882  2571.28476 
   2   8   1     1.46003     0.80567     0.80685 
   2   8   2     1.40020  3327.63501  3347.62511 
   2   8   3     1.31499    52.29686    52.29183 
   2   8   4     1.21821  1107.61726  1110.25933 
   2   8   5     1.12037     1.62974     1.62875 
   2   8   6     1.02771   541.34206   533.27065 
   2   8   7     0.94313    38.16748    38.16802 
   2   8   8     0.86745   296.61459   297.01197 
   2   8   9     0.80039    39.00052    38.71555 
   2   8  10     0.74119    13.41265    13.50741 
   2   8  11     0.68893     4.27020     4.32990 
   2   8  12     0.64272    24.55309    24.44237 
   2   8  13     0.60171    21.04451    20.87004 
   2   8  14     0.56519   944.45535   932.56148 
   2   8  15     0.53252   325.86728   323.79352 
   2   8  16     0.50319   181.00464   182.03582 
   2   8  17     0.47674    30.84559    31.66485 
   2   8  18     0.45279   229.99796   233.99033 
   2   8  19     0.43103    10.13556     9.99092 
   2   8  20     0.41118   971.14943   950.35898 
   2   8  21     0.39301    23.80203    23.72880 
   2   8  22     0.37632   180.38000   183.04049 
   2   9   0     1.33302    28.84132    28.74291 
   2   9   1     1.31714   255.57129   254.05218 
   2   9   2     1.27272    93.14455    92.12650 
   2   9   3     1.20772   108.87067   109.43262 
   2   9   4     1.13145     9.96078     9.94939 
   2   9   5     1.05177     0.20544     0.20426 
   2   9   6     0.97400   256.52984   258.90217 
   2   9   7     0.90111   645.28419   641.47795 
   2   9   8     0.83442    15.46916    15.33253 
   2   9   9     0.77422   378.69719   378.73947 
   2   9  10     0.72027    66.86509    67.05612 
   2   9  11     0.67203    18.79885    18.78207 
   2   9  12     0.62893   166.26623   166.60871 
   2   9  13     0.59035    10.00402     9.96954 
   2   9  14     0.55574   679.21051   669.85396 
   2   9  15     0.52460    26.14338    26.35103 
   2   9  16     0.49649   222.64455   226.15732 
   2   9  17     0.47103     0.82141     0.85033 
   2   9  18     0.44789   388.71394   388.95611 
   2   9  19     0.42680    39.98998    39.63935 
   2   9  20     0.40750   138.59447   136.19856 
   2   9  21     0.38979    14.41514    14.40616 
   2   9  22     0.37350    27.32104    28.79809 
   2  10   0     1.21029   873.00316   872.97555 
   2  10   1     1.19837   526.52237   531.31191 
   2  10   2     1.16462     4.39192     4.35431 
   2  10   3     1.11420   151.11227   150.95283 
   2  10   4     1.05347   191.05640   191.78391 
   2  10   5     0.98826    30.79139    31.19656 
   2  10   6     0.92291    49.91745    49.42147 
   2  10   7     0.86020   601.31350   598.80398 
   2  10   8     0.80162  2067.60956  2062.81405 
   2  10   9     0.74781     4.23951     4.24207 
   2  10  10     0.69885  1373.92124  1392.74201 
   2  10  11     0.65454     7.76825     7.74453 
   2  10  12     0.61452  1077.20326  1066.39420 
   2  10  13     0.57839    78.15571    77.18001 
   2  10  14     0.54573   885.68213   877.87263 
   2  10  15     0.51615     0.19905     0.20285 
   2  10  16     0.48931   210.33119   214.87854 
   2  10  17     0.46489   242.26290   248.46535 
   2  10  18     0.44260  1044.43946  1047.33158 
   2  10  19     0.42221     0.16329     0.15991 
   2  10  20     0.40350   411.34018   405.10253 
   2  10  21     0.38629    62.39369    62.24982 
   2  11   0     1.10754   317.33803   323.32442 
   2  11   1     1.09838   113.22794   114.05635 
   2  11   2     1.07222    90.82363    90.58556 
   2  11   3     1.03248   446.41004   441.69824 
   2  11   4     0.98361    29.59513    29.69972 
   2  11   5     0.92990   329.20597   327.89850 
   2  11   6     0.87485     8.71105     8.72294 
   2  11   7     0.82089     0.13197     0.13186 
   2  11   8     0.76952  1364.69683  1365.83416 
   2  11   9     0.72155  1723.62304  1728.14608 
   2  11  10     0.67728    63.67939    64.72247 
   2  11  11     0.63671     0.79055     0.78469 
   2  11  12     0.59970   111.73477   110.28501 
   2  11  13     0.56598   201.89479   198.68115 
   2  11  14     0.53527    16.59023    16.55090 
   2  11  15     0.50727   311.62436   315.85361 
   2  11  16     0.48173  1129.24459  1160.58958 
   2  11  17     0.45837   327.26294   328.35759 
   2  11  18     0.43697    98.37117    97.66214 
   2  11  19     0.41731    66.52539    64.78984 
   2  11  20     0.39922     0.00111     0.00109 
   2  11  21     0.38252   129.35368   130.40613 
   2  12   0     1.02041  2158.68240  2175.08445 
   2  12   1     1.01323   146.80229   145.30842 
   2  12   2     0.99259  2489.13799  2523.55932 
   2  12   3     0.96081   724.78213   728.73577 
   2  12   4     0.92105  1009.73552  1006.19867 
   2  12   5     0.87652   712.12536   713.12242 
   2  12   6     0.82996   629.11500   628.96760 
   2  12   7     0.78346   451.62407   450.99402 
   2  12   8     0.73844   208.79402   207.17959 
   2  12   9     0.69574   283.70676   285.83947 
   2  12  10     0.65579    10.97289    11.01696 
   2  12  11     0.61877    31.98270    32.05506 
   2  12  12     0.58463    95.43384    93.54956 
   2  12  13     0.55326     0.64494     0.63840 
   2  12  14     0.52447   706.03655   711.73500 
   2  12  15     0.49806   135.52991   137.00335 
   2  12  16     0.47381   368.61932   375.83416 
   2  12  17     0.45153    42.78824    43.16375 
   2  12  18     0.43103   285.64740   281.56881 
   2  12  19     0.41213     3.86592     3.78465 
   2  12  20     0.39468   778.15318   775.89384 
   2  12  21     0.37852     1.57028     1.58798 
   2  13   0     0.94567    54.12652    54.30101 
   2  13   1     0.93996   423.31076   423.60100 
   2  13   2     0.92340    95.71302    94.65842 
   2  13   3     0.89765   150.80723   150.65367 
   2  13   4     0.86498    68.41040    68.98346 
   2  13   5     0.82778    44.11832    43.91841 
   2  13   6     0.78823  1386.20832  1377.50484 
   2  13   7     0.74807  1187.50934  1188.74606 
   2  13   8     0.70858   210.37313   212.55383 
   2  13   9     0.67060   244.32177   244.02868 
   2  13  10     0.63461   348.59073   348.05168 
   2  13  11     0.60088    62.17312    61.41272 
   2  13  12     0.56948    49.46105    48.81585 
   2  13  13     0.54036    43.89550    43.32665 
   2  13  14     0.51344   288.69094   290.40134 
   2  13  15     0.48859   120.77052   123.03455 
   2  13  16     0.46564     9.40388     9.65880 
   2  13  17     0.44444    11.68703    11.68832 
   2  13  18     0.42485   257.46848   253.00303 
   2  13  19     0.40672    20.83037    20.38626 
   2  13  20     0.38991   136.11699   135.97533 
   2  13  21     0.37432    28.68217    29.77705 
   2  14   0     0.88093   182.54205   183.16678 
   2  14   1     0.87630   315.87130   316.54870 
   2  14   2     0.86284    15.16562    15.15676 
   2  14   3     0.84172   668.31067   664.74976 
   2  14   4     0.81460   283.41182   280.10156 
   2  14   5     0.78330   650.85523   649.84620 
   2  14   6     0.74954   319.42177   321.39270 
   2  14   7     0.71476   889.05800   891.96980 
   2  14   8     0.68008  1372.94887  1399.24783 
   2  14   9     0.64629   191.11780   190.29582 
   2  14  10     0.61390  1433.35369  1415.84013 
   2  14  11     0.58321    55.09947    54.83563 
   2  14  12     0.55436  1001.43541   983.26369 
   2  14  13     0.52740    42.27472    41.81314 
   2  14  14     0.50229   553.09357   562.20982 
   2  14  15     0.47894    25.31788    25.75831 
   2  14  16     0.45727   371.60443   375.37159 
   2  14  17     0.43715    77.49925    76.91657 
   2  14  18     0.41846   672.06200   654.54250 
   2  14  19     0.40110     0.08673     0.08529 
   2  14  20     0.38496   351.71481   350.08748 
   2  15   0     0.82432   150.68894   151.17312 
   2  15   1     0.82053   100.74974   100.59399 
   2  15   2     0.80945   300.88964   300.40445 
   2  15   3     0.79194   495.67088   494.17920 
   2  15   4     0.76923   223.49066   223.89529 
   2  15   5     0.74271   559.68200   562.08448 
   2  15   6     0.71374   123.14066   124.23411 
   2  15   7     0.68352     8.43443     8.54596 
   2  15   8     0.65300  2019.00289  2010.48488 
   2  15   9     0.62292  1492.33432  1476.99659 
   2  15  10     0.59376    17.36955    17.08745 
   2  15  11     0.56586     7.99218     7.86120 
   2  15  12     0.53940     0.98833     0.97576 
   2  15  13     0.51447   187.31843   189.31553 
   2  15  14     0.49108   127.99008   130.39354 
   2  15  15     0.46919   206.79298   214.75228 
   2  15  16     0.44876   696.51574   699.28220 
   2  15  17     0.42970   324.28577   319.41821 
   2  15  18     0.41191    34.22024    33.54070 
   2  15  19     0.39533    53.04084    52.59397 
   2  15  20     0.37984     3.31339     3.33807 
   2  16   0     0.77445  1723.89768  1719.27267 
   2  16   1     0.77130   172.19814   172.67109 
   2  16   2     0.76207  1519.82277  1539.70325 
   2  16   3     0.74740   329.62976   329.84712 
   2  16   4     0.72823   720.93464   730.22914 
   2  16   5     0.70561   318.86690   322.76523 
   2  16   6     0.68063   550.80130   564.29846 
   2  16   7     0.65427   453.87129   453.14650 
   2  16   8     0.62736    41.22403    40.90006 
   2  16   9     0.60054    94.75780    93.64872 
   2  16  10     0.57428    44.46343    43.90719 
   2  16  11     0.54892    42.92475    42.38821 
   2  16  12     0.52467   134.85233   135.88834 
   2  16  13     0.50164    30.94223    31.52936 
   2  16  14     0.47988   395.28306   400.76195 
   2  16  15     0.45940    28.03371    28.09025 
   2  16  16     0.44017   604.06790   603.01395 
   2  16  17     0.42214    70.63704    69.13774 
   2  16  18     0.40524   322.54975   317.44918 
   2  16  19     0.38942     0.95726     0.95711 
   2  16  20     0.37459   597.13363   617.78797 
   2  17   0     0.73018   225.59198   230.83111 
   2  17   1     0.72754   400.76056   404.32453 
   2  17   2     0.71978     4.99517     4.99584 
   2  17   3     0.70738   105.54601   106.97598 
   2  17   4     0.69106   114.32749   115.87749 
   2  17   5     0.67164    59.37038    59.30741 
   2  17   6     0.64999  1020.91236  1029.33359 
   2  17   7     0.62692  1165.71212  1152.66117 
   2  17   8     0.60312    23.08207    23.01123 
   2  17   9     0.57918   113.16137   112.12089 
   2  17  10     0.55552   187.52389   184.98848 
   2  17  11     0.53247    70.85660    70.39306 
   2  17  12     0.51025    14.35025    14.40906 
   2  17  13     0.48899    55.60432    56.75908 
   2  17  14     0.46877   345.22685   356.32751 
   2  17  15     0.44963   184.42246   186.25111 
   2  17  16     0.43155     0.12919     0.12694 
   2  17  17     0.41452    17.30498    16.94622 
   2  17  18     0.39848   190.28389   185.96492 
   2  17  19     0.38341     6.14145     6.19139 
   2  18   0     0.69064    11.63899    11.82377 
   2  18   1     0.68840     5.91775     6.00758 
   2  18   2     0.68182     0.07345     0.07459 
   2  18   3     0.67126   122.00415   121.88586 
   2  18   4     0.65726   293.97158   294.48920 
   2  18   5     0.64048   100.61660   100.02829 
   2  18   6     0.62163   814.30676   808.41431 
   2  18   7     0.60136    20.55827    20.33261 
   2  18   8     0.58026  1038.96459  1034.65783 
   2  18   9     0.55884    72.52779    71.12584 
   2  18  10     0.53750  1797.93046  1777.10866 
   2  18  11     0.51654     4.01122     4.09218 
   2  18  12     0.49618  1162.43674  1184.68967 
   2  18  13     0.47657     1.78738     1.83462 
   2  18  14     0.45779   388.26154   390.22760 
   2  18  15     0.43991   113.78209   113.66104 
   2  18  16     0.42294   617.20269   604.28167 
   2  18  17     0.40687    12.03121    11.78567 
   2  18  18     0.39167   421.64769   420.85952 
   2  18  19     0.37733     0.00663     0.00671 
   2  19   0     0.65512    45.93164    45.82784 
   2  19   1     0.65321    84.19068    83.94836 
   2  19   2     0.64757   310.77933   308.92053 
   2  19   3     0.63850   288.06333   285.17885 
   2  19   4     0.62642   115.68229   114.45923 
   2  19   5     0.61185   403.39494   397.49419 
   2  19   6     0.59535     0.13961     0.13798 
   2  19   7     0.57747     3.17488     3.12531 
   2  19   8     0.55871   631.54556   618.84465 
   2  19   9     0.53951   877.03940   864.89104 
   2  19  10     0.52024    59.78106    59.61952 
   2  19  11     0.50116     5.65982     5.75199 
   2  19  12     0.48250   121.72298   125.77913 
   2  19  13     0.46441   154.80690   157.88601 
   2  19  14     0.44699     6.23247     6.24504 
   2  19  15     0.43030    90.38244    89.08252 
   2  19  16     0.41437   653.37014   639.70922 
   2  19  17     0.39922   249.71355   245.48444 
   2  19  18     0.38484    46.42395    46.24524 
   2  20   0     0.62303  1966.24738  1946.84121 
   2  20   1     0.62139   133.33068   132.52664 
   2  20   2     0.61653  1403.50477  1398.19233 
   2  20   3     0.60869     5.50740     5.40214 
   2  20   4     0.59819   794.04514   781.28242 
   2  20   5     0.58547     1.50247     1.46921 
   2  20   6     0.57096   638.07855   627.27645 
   2  20   7     0.55513   108.14876   106.63947 
   2  20   8     0.53841     0.48294     0.47967 
   2  20   9     0.52117    34.98464    34.98604 
   2  20  10     0.50373    72.41226    72.70189 
   2  20  11     0.48635     2.26534     2.31798 
   2  20  12     0.46924   137.57987   142.96057 
   2  20  13     0.45255    52.78125    53.72449 
   2  20  14     0.43638   163.21911   161.91766 
   2  20  15     0.42081     0.76257     0.74098 
   2  20  16     0.40588   831.87371   813.61408 
   2  20  17     0.39161   117.12109   116.87642 
   2  20  18     0.37801   339.02806   343.69785 
   2  21   0     0.59392   109.08670   107.13396 
   2  21   1     0.59249   245.02492   243.99702 
   2  21   2     0.58828    25.26625    25.06379 
   2  21   3     0.58145    51.04513    50.50891 
   2  21   4     0.57228    18.61004    18.44269 
   2  21   5     0.56111    41.72409    40.89304 
   2  21   6     0.54830   359.21761   355.05047 
   2  21   7     0.53424   754.80766   752.34592 
   2  21   8     0.51928    28.95733    28.73304 
   2  21   9     0.50376    45.64735    45.83001 
   2  21  10     0.48796     6.58587     6.68323 
   2  21  11     0.47212    44.71637    45.99181 
   2  21  12     0.45642    27.41509    27.87191 
   2  21  13     0.44102    33.81592    33.87188 
   2  21  14     0.42601   509.71667   501.06988 
   2  21  15     0.41149   163.10127   159.89684 
   2  21  16     0.39750    22.22723    21.77366 
   2  21  17     0.38407    10.13709    10.18290 
   2  22   0     0.56738     0.00616     0.00609 
   2  22   1     0.56614    28.20801    27.79205 
   2  22   2     0.56246    65.52245    64.71391 
   2  22   3     0.55648    89.35050    87.94807 
   2  22   4     0.54843   148.84398   147.12121 
   2  22   5     0.53857    87.27675    86.69068 
   2  22   6     0.52721  1040.16800  1029.32920 
   2  22   7     0.51468    40.20361    40.71671 
   2  22   8     0.50126   645.95137   656.93583 
   2  22   9     0.48726    72.98468    74.00162 
   2  22  10     0.47292  1899.74534  1942.01816 
   2  22  11     0.45845     1.77009     1.77583 
   2  22  12     0.44404  1211.52963  1212.20424 
   2  22  13     0.42982    12.50857    12.32000 
   2  22  14     0.41589   253.06870   247.84280 
   2  22  15     0.40235   204.50910   199.15985 
   2  22  16     0.38924   809.74308   809.44524 
   2  22  17     0.37660     0.34947     0.35387 
   2  23   0     0.54309    91.42712    90.40329 
   2  23   1     0.54200    31.44345    31.03854 
   2  23   2     0.53877    42.73176    42.42576 
   2  23   3     0.53351   173.56085   172.66480 
   2  23   4     0.52641    26.13346    25.94781 
   2  23   5     0.51767   285.75087   289.82782 
   2  23   6     0.50756     0.01310     0.01328 
   2  23   7     0.49634    14.78188    15.03906 
   2  23   8     0.48428   302.40115   310.00107 
   2  23   9     0.47162   423.28287   436.69597 
   2  23  10     0.45858    33.07714    33.18105 
   2  23  11     0.44535     2.61819     2.62076 
   2  23  12     0.43211   118.07169   115.99185 
   2  23  13     0.41897   113.89063   111.16984 
   2  23  14     0.40604     7.21537     7.05206 
   2  23  15     0.39341     9.84642     9.80708 
   2  23  16     0.38113   470.20441   474.44030 
   2  24   0     0.52079  2111.97083  2117.56526 
   2  24   1     0.51983   263.27597   261.20035 
   2  24   2     0.51697  1312.68059  1336.55253 
   2  24   3     0.51232    35.09979    35.25594 
   2  24   4     0.50602   921.49210   927.33667 
   2  24   5     0.49824    12.08022    12.21966 
   2  24   6     0.48921   859.86028   878.24345 
   2  24   7     0.47914   356.70533   362.60543 
   2  24   8     0.46827     5.63533     5.77009 
   2  24   9     0.45679    39.64257    40.23576 
   2  24  10     0.44491   165.22119   165.46651 
   2  24  11     0.43280     8.61838     8.54045 
   2  24  12     0.42061   199.95037   194.25555 
   2  24  13     0.40847    95.64714    93.68862 
   2  24  14     0.39646    85.24228    84.16873 
   2  24  15     0.38467    31.24486    31.16643 
   2  24  16     0.37317  1062.91279  1127.61085 
   2  25   0     0.50023     2.96753     3.00772 
   2  25   1     0.49938   118.46480   120.08244 
   2  25   2     0.49685    56.24069    56.93262 
   2  25   3     0.49271    78.64959    80.49623 
   2  25   4     0.48710     7.63723     7.74968 
   2  25   5     0.48015   103.77804   105.34736 
   2  25   6     0.47205   255.03954   262.45535 
   2  25   7     0.46299   494.60781   502.05968 
   2  25   8     0.45315     7.73938     7.84546 
   2  25   9     0.44273    59.06037    59.23841 
   2  25  10     0.43189    38.22295    37.51222 
   2  25  11     0.42079    22.88889    22.23968 
   2  25  12     0.40956     1.96516     1.90863 
   2  25  13     0.39832     5.12846     5.00892 
   2  25  14     0.38716   233.83508   235.01808 
   2  25  15     0.37616   101.48915   103.16240 
   2  26   0     0.48122    25.37827    25.99864 
   2  26   1     0.48047    48.49390    49.34145 
   2  26   2     0.47821    80.19453    81.74832 
   2  26   3     0.47452   251.50221   255.90783 
   2  26   4     0.46950   120.60130   125.46784 
   2  26   5     0.46327   359.77975   366.18011 
   2  26   6     0.45598  1140.73244  1159.04863 
   2  26   7     0.44780     6.55373     6.56150 
   2  26   8     0.43888   385.48333   385.28886 
   2  26   9     0.42939   263.76982   260.06525 
   2  26  10     0.41948  1715.76078  1676.05126 
   2  26  11     0.40928     2.80425     2.72644 
   2  26  12     0.39893  1091.64433  1070.73388 
   2  26  13     0.38852    19.64722    19.62585 
   2  26  14     0.37815   147.86804   149.83967 
   2  27   0     0.46360    43.99094    44.80881 
   2  27   1     0.46292     0.02789     0.02829 
   2  27   2     0.46091     1.80676     1.81259 
   2  27   3     0.45760   147.15799   148.12449 
   2  27   4     0.45309    26.75523    27.14042 
   2  27   5     0.44748   256.19197   256.90628 
   2  27   6     0.44091    42.62670    42.66125 
   2  27   7     0.43349    94.17330    92.89174 
   2  27   8     0.42539   242.95580   239.00314 
   2  27   9     0.41673   180.32072   176.18804 
   2  27  10     0.40765    12.57177    12.35445 
   2  27  11     0.39828     1.53904     1.50301 
   2  27  12     0.38872     9.68367     9.67158 
   2  27  13     0.37907    73.98033    74.51556 
   2  28   0     0.44722  1771.00630  1776.37052 
   2  28   1     0.44661   301.99534   301.70630 
   2  28   2     0.44480   934.03886   935.05412 
   2  28   3     0.44182    37.73655    37.86514 
   2  28   4     0.43776   767.24180   762.50960 
   2  28   5     0.43270    23.05151    22.82593 
   2  28   6     0.42674   839.91263   831.78385 
   2  28   7     0.42001   530.49963   516.91743 
   2  28   8     0.41263    11.00703    10.74040 
   2  28   9     0.40471    21.02617    20.79087 
   2  28  10     0.39638   226.09480   223.31101 
   2  28  11     0.38774    29.65376    29.75938 
   2  28  12     0.37891   250.75733   252.85919 
   2  29   0     0.43195     0.16943     0.16627 
   2  29   1     0.43140    30.98976    30.48029 
   2  29   2     0.42977     1.23531     1.21670 
   2  29   3     0.42708   128.96418   128.35630 
   2  29   4     0.42341    22.80755    22.32825 
   2  29   5     0.41882   203.58864   198.59335 
   2  29   6     0.41341   132.29684   128.90773 
   2  29   7     0.40728   276.17404   271.22741 
   2  29   8     0.40054    76.65859    75.38891 
   2  29   9     0.39329   111.92424   111.50139 
   2  29  10     0.38563    34.31670    34.08257 
   2  29  11     0.37767     8.75185     8.87237 
   2  30   0     0.41768    82.14402    79.94611 
   2  30   1     0.41719    88.38326    86.11736 
   2  30   2     0.41571    28.83276    28.22633 
   2  30   3     0.41328   140.29757   136.64217 
   2  30   4     0.40995   169.36524   164.44302 
   2  30   5     0.40578   232.21952   227.28392 
   2  30   6     0.40085  1262.81915  1242.68711 
   2  30   7     0.39526    37.02074    36.72973 
   2  30   8     0.38909   369.47449   369.22825 
   2  30   9     0.38243   237.27454   239.25120 
   2  30  10     0.37538  1615.96517  1657.94034 
   2  31   0     0.40432     0.17637     0.17451 
   2  31   1     0.40387    29.07007    28.70442 
   2  31   2     0.40253     0.14264     0.13902 
   2  31   3     0.40032    95.97113    94.32530 
   2  31   4     0.39729    28.01917    27.49743 
   2  31   5     0.39350   167.23829   166.55200 
   2  31   6     0.38900    86.70352    86.63009 
   2  31   7     0.38388   199.94272   201.18239 
   2  31   8     0.37822    52.28534    52.96493 
   2  31   9     0.37210    42.33031    45.81022 
   2  32   0     0.39179  1452.60854  1450.52612 
   2  32   1     0.39138   200.15166   199.58538 
   2  32   2     0.39016   772.13918   770.62449 
   2  32   3     0.38815     0.89173     0.89234 
   2  32   4     0.38538   630.47367   626.29326 
   2  32   5     0.38192     1.47773     1.49190 
   2  32   6     0.37780   669.59139   678.96197 
   2  32   7     0.37311   276.37350   293.55322 
   2  33   0     0.38001     8.00464     8.07033 
   2  33   1     0.37963     0.03119     0.03139 
   2  33   2     0.37852    14.91560    15.08440 
   2  33   3     0.37668   147.96592   149.77664 
   2  33   4     0.37415    22.62975    23.55150 
   3   0   1     2.77818  2469.82642  2490.10299 
   3   0   2     2.42174  1300.96612  1285.49689 
   3   0   3     2.04658  1344.50797  1366.52536 
   3   0   4     1.72958   124.44432   124.64737 
   3   0   5     1.47905  1528.93083  1536.24876 
   3   0   6     1.28326  1025.77257  1028.12759 
   3   0   7     1.12890    84.32904    84.72812 
   3   0   8     1.00534   528.04583   520.63398 
   3   0   9     0.90483    23.62719    23.74175 
   3   0  10     0.82179     1.15742     1.15848 
   3   0  11     0.75221   824.82619   832.08312 
   3   0  12     0.69316    79.97145    80.20361 
   3   0  13     0.64250    21.97575    21.86405 
   3   0  14     0.59858    16.90910    16.68279 
   3   0  15     0.56018   315.53074   311.09793 
   3   0  16     0.52632    49.37964    49.05442 
   3   0  17     0.49628  1820.58910  1853.60949 
   3   0  18     0.46943    72.61120    75.53186 
   3   0  19     0.44531   260.86722   261.20577 
   3   0  20     0.42351   113.34791   111.02730 
   3   0  21     0.40374   547.76601   540.39561 
   3   0  22     0.38571    40.34307    40.07531 
   3   1   1     2.71288   336.84895   321.25990 
   3   1   2     2.37813   145.34276   141.34455 
   3   1   3     2.02005   817.50729   805.48423 
   3   1   4     1.71348   108.75121   109.16019 
   3   1   5     1.46895   413.03775   411.33115 
   3   1   6     1.27664     4.98077     5.01960 
   3   1   7     1.12438  2062.92045  2075.05013 
   3   1   8     1.00215   665.20825   667.19341 
   3   1   9     0.90250   473.59588   475.73740 
   3   1  10     0.82004   485.38702   483.84866 
   3   1  11     0.75087   165.32790   166.30178 
   3   1  12     0.69212    14.73467    14.78574 
   3   1  13     0.64166    20.18690    20.06820 
   3   1  14     0.59790   347.85376   341.21123 
   3   1  15     0.55962   246.21044   242.59423 
   3   1  16     0.52587   172.86319   172.25872 
   3   1  17     0.49589   556.14981   568.34055 
   3   1  18     0.46910    20.17144    20.92381 
   3   1  19     0.44503     3.73847     3.74497 
   3   1  20     0.42328    86.50943    84.65433 
   3   1  21     0.40353    15.05201    14.82713 
   3   1  22     0.38553    47.16058    46.83744 
   3   2   1     2.54156    96.88346    98.36317 
   3   2   2     2.26019  1149.06264  1128.96398 
   3   2   3     1.94626  1423.98217  1454.62626 
   3   2   4     1.66775   933.16362   931.34166 
   3   2   5     1.43983  1456.10786  1480.35966 
   3   2   6     1.25739   860.15153   862.11016 
   3   2   7     1.11116   698.99978   698.98794 
   3   2   8     0.99275   706.75935   715.60909 
   3   2   9     0.89562   182.55884   182.88521 
   3   2  10     0.81487   142.40669   140.56603 
   3   2  11     0.74689  2254.57869  2256.70364 
   3   2  12     0.68900    23.15350    23.47729 
   3   2  13     0.63917    46.40094    45.95236 
   3   2  14     0.59589     6.96242     6.87120 
   3   2  15     0.55797   400.13472   392.23623 
   3   2  16     0.52449   218.24020   220.00367 
   3   2  17     0.49474   170.79864   176.12858 
   3   2  18     0.46813     4.04150     4.13103 
   3   2  19     0.44419   231.18054   231.20874 
   3   2  20     0.42256     1.56178     1.53128 
   3   2  21     0.40291   989.47266   968.20283 
   3   2  22     0.38499    14.31909    14.25017 
   3   3   1     2.31640   233.90550   230.29441 
   3   3   2     2.09743     6.67989     6.67664 
   3   3   3     1.83942   319.77101   319.50223 
   3   3   4     1.59904    69.78180    69.22536 
   3   3   5     1.39492   223.52177   226.08928 
   3   3   6     1.22715   205.65000   205.74640 
   3   3   7     1.09013  1103.66853  1104.22069 
   3   3   8     0.97767   250.49612   248.68204 
   3   3   9     0.88450    93.29708    92.38048 
   3   3  10     0.80647   682.34339   681.48037 
   3   3  11     0.74040   266.47146   267.96884 
   3   3  12     0.68389    18.46926    18.76989 
   3   3  13     0.63509    14.73706    14.73561 
   3   3  14     0.59258   556.24182   553.59697 
   3   3  15     0.55525   318.11045   313.76715 
   3   3  16     0.52223   318.22065   316.13922 
   3   3  17     0.49284   496.76066   509.12631 
   3   3  18     0.46652   106.08727   108.55640 
   3   3  19     0.44282    34.09638    34.20493 
   3   3  20     0.42137     3.07276     2.99089 
   3   3  21     0.40188     3.53301     3.44627 
   3   3  22     0.38409    64.76695    65.04149 
   3   4   1     2.08266   452.42496   451.84000 
   3   4   2     1.91920  1641.80902  1644.57865 
   3   4   3     1.71565   184.12745   185.07914 
   3   4   4     1.51572    17.98673    17.89813 
   3   4   5     1.33857   853.45336   845.90397 
   3   4   6     1.18826   976.56801   990.48045 
   3   4   7     1.06259     7.29894     7.41662 
   3   4   8     0.95765   512.20573   511.42765 
   3   4   9     0.86959    29.07275    29.15207 
   3   4  10     0.79512    26.28315    26.12254 
   3   4  11     0.73160  1566.65355  1593.38051 
   3   4  12     0.67694   105.35030   107.17659 
   3   4  13     0.62951    79.57126    79.58201 
   3   4  14     0.58804    24.69037    24.46510 
   3   4  15     0.55151   635.29232   631.98686 
   3   4  16     0.51911    98.29900    97.72717 
   3   4  17     0.49022  3303.28162  3373.90127 
   3   4  18     0.46429   127.60353   130.01781 
   3   4  19     0.44091   528.58201   529.03638 
   3   4  20     0.41973   192.85632   188.24863 
   3   4  21     0.40046  1010.16440   993.17383 
   3   4  22     0.38284    63.22682    63.72275 
   3   5   1     1.86548    27.48540    27.34040 
   3   5   2     1.74528     5.49351     5.52191 
   3   5   3     1.58802   254.79354   257.04661 
   3   5   4     1.42555   617.13492   622.09335 
   3   5   5     1.27524     7.69979     7.71335 
   3   5   6     1.14329   280.62316   279.80956 
   3   5   7     1.03007   460.63697   450.11771 
   3   5   8     0.93364    68.87040    68.88343 
   3   5   9     0.85150     2.43305     2.40883 
   3   5  10     0.78122    24.53825    24.42722 
   3   5  11     0.72072  1000.81394  1004.43493 
   3   5  12     0.66829   137.24839   138.64810 
   3   5  13     0.62254    24.20150    23.93081 
   3   5  14     0.58234   273.05924   271.11879 
   3   5  15     0.54680   474.92379   469.63751 
   3   5  16     0.51519   152.40519   154.87258 
   3   5  17     0.48690   750.60473   762.93749 
   3   5  18     0.46147    25.91503    26.05652 
   3   5  19     0.43850     0.38646     0.38607 
   3   5  20     0.41765   214.66044   208.92505 
   3   5  21     0.39864    40.70560    39.82091 
   3   5  22     0.38126    27.29905    27.55739 
   3   6   1     1.67416  4709.44097  4704.65620 
   3   6   2     1.58565   550.13465   554.68303 
   3   6   3     1.46494   339.75324   338.26454 
   3   6   4     1.33451   255.56979   254.16522 
   3   6   5     1.20882  4410.79391  4417.42972 
   3   6   6     1.09470   234.30612   237.60001 
   3   6   7     0.99410  1819.83588  1812.98475 
   3   6   8     0.90661   243.89022   242.06676 
   3   6   9     0.83084   442.60187   441.55658 
   3   6  10     0.76517    36.20270    36.78084 
   3   6  11     0.70807  1918.62136  1938.85221 
   3   6  12     0.65817    26.94554    27.23583 
   3   6  13     0.61433    85.82000    84.92447 
   3   6  14     0.57561     6.73456     6.61088 
   3   6  15     0.54121   380.35538   376.00095 
   3   6  16     0.51050   190.21666   191.00323 
   3   6  17     0.48295   167.56735   173.05537 
   3   6  18     0.45810     0.72539     0.72812 
   3   6  19     0.43560    98.43159    97.89453 
   3   6  20     0.41514     1.79250     1.75459 
   3   6  21     0.39646   860.46646   849.62136 
   3   6  22     0.37935     9.47082     9.52875 
   3   7   1     1.50956    19.42008    19.62934 
   3   7   2     1.44371   467.93179   480.55656 
   3   7   3     1.35083     0.46487     0.46098 
   3   7   4     1.24654    16.67016    16.56301 
   3   7   5     1.14228     6.00069     5.96271 
   3   7   6     1.04455  1419.81459  1436.99431 
   3   7   7     0.95609   140.77980   140.23324 
   3   7   8     0.87750     6.33907     6.32342 
   3   7   9     0.80827    81.92685    82.17743 
   3   7  10     0.74743   542.81682   543.16476 
   3   7  11     0.69394   553.68711   555.29586 
   3   7  12     0.64677   139.32965   138.42418 
   3   7  13     0.60503   279.99289   279.16574 
   3   7  14     0.56794   702.28206   692.66801 
   3   7  15     0.53482   476.38426   476.05227 
   3   7  16     0.50513   469.49601   472.21484 
   3   7  17     0.47839   446.69992   454.91008 
   3   7  18     0.45421   191.62803   193.65109 
   3   7  19     0.43225   108.56393   106.83668 
   3   7  20     0.41224    26.78284    26.20183 
   3   7  21     0.39393     0.15337     0.15280 
   3   7  22     0.37713    80.17374    81.13395 
   3   8   1     1.36908   128.53335   127.80865 
   3   8   2     1.31939  1109.72811  1093.12396 
   3   8   3     1.24737   116.95052   116.45361 
   3   8   4     1.16386    34.36028    34.01417 
   3   8   5     1.07766    28.68852    29.09938 
   3   8   6     0.99445   644.21548   639.35414 
   3   8   7     0.91723    54.71436    54.12403 
   3   8   8     0.84717   341.74329   338.61394 
   3   8   9     0.78437     2.15504     2.14563 
   3   8  10     0.72842    13.56885    13.75831 
   3   8  11     0.67864   961.08477   971.69273 
   3   8  12     0.63433    50.25566    50.14092 
   3   8  13     0.59481   130.78243   128.72102 
   3   8  14     0.55946     8.11676     7.99266 
   3   8  15     0.52773   630.38502   622.61573 
   3   8  16     0.49914    88.51399    89.74635 
   3   8  17     0.47329  2660.99034  2716.38282 
   3   8  18     0.44983    88.38474    89.43810 
   3   8  19     0.42848   673.76328   667.69906 
   3   8  20     0.40896   102.44696    99.88291 
   3   8  21     0.39107   894.87714   891.80907 
   3   8  22     0.37462    34.68491    35.87416 
   3   9   1     1.24921     4.32915     4.34239 
   3   9   2     1.21112    46.37277    46.29762 
   3   9   3     1.15470   168.74696   170.45559 
   3   9   4     1.08751  1099.93453  1102.93436 
   3   9   5     1.01620    30.93837    30.33785 
   3   9   6     0.94554   148.82046   149.23557 
   3   9   7     0.87844   350.21988   349.76534 
   3   9   8     0.81632    22.60234    22.36792 
   3   9   9     0.75970     7.83762     7.85185 
   3   9  10     0.70853    33.34853    33.69149 
   3   9  11     0.66247   940.86259   949.83863 
   3   9  12     0.62107   292.38493   290.86084 
   3   9  13     0.58384    26.25572    25.93931 
   3   9  14     0.55030   101.57831   100.63346 
   3   9  15     0.52001   463.76495   461.06719 
   3   9  16     0.49260    54.55667    55.76979 
   3   9  17     0.46770   724.59717   738.65550 
   3   9  18     0.44503   116.03949   116.24156 
   3   9  19     0.42432     0.31367     0.30783 
   3   9  20     0.40534   388.74325   382.18610 
   3   9  21     0.38790    61.12248    61.27497 
   3  10   1     1.14653  2247.43956  2257.16253 
   3  10   2     1.11686   772.37272   771.39660 
   3  10   3     1.07216   297.00425   296.16116 
   3  10   4     1.01773   628.24725   623.74823 
   3  10   5     0.95858  2953.35082  2964.36201 
   3  10   6     0.89860   641.58439   640.43477 
   3  10   7     0.84041  2003.46775  1972.27037 
   3  10   8     0.78554   441.43256   435.68362 
   3  10   9     0.73470   914.71524   926.83871 
   3  10  10     0.68812    63.38252    64.41646 
   3  10  11     0.64570  1718.72010  1712.72013 
   3  10  12     0.60718     3.58181     3.54436 
   3  10  13     0.57226   287.52700   285.00825 
   3  10  14     0.54057     4.92712     4.87010 
   3  10  15     0.51178   349.76148   350.49261 
   3  10  16     0.48558   130.06933   133.36323 
   3  10  17     0.46169   102.48193   103.34049 
   3  10  18     0.43984     1.47375     1.47263 
   3  10  19     0.41981    12.66903    12.36135 
   3  10  20     0.40140     1.45588     1.42795 
   3  10  21     0.38445   550.57220   550.53519 
   3  11   1     1.05805    71.56717    71.51866 
   3  11   2     1.03461   242.38597   242.69004 
   3  11   3     0.99877     8.78549     8.80997 
   3  11   4     0.95433   280.71476   279.35748 
   3  11   5     0.90505   323.11823   324.07159 
   3  11   6     0.85406   504.05250   505.20885 
   3  11   7     0.80364   507.00057   505.10747 
   3  11   8     0.75526    17.90397    17.97500 
   3  11   9     0.70975    13.61337    13.80576 
   3  11  10     0.66749   842.02926   846.61093 
   3  11  11     0.62856    40.19830    40.31140 
   3  11  12     0.59287   221.58009   220.08524 
   3  11  13     0.56023   166.32181   163.97982 
   3  11  14     0.53039   554.20251   544.39188 
   3  11  15     0.50312   264.91127   266.60299 
   3  11  16     0.47817   370.16038   377.45433 
   3  11  17     0.45530   227.37157   230.70174 
   3  11  18     0.43430   333.30343   331.08511 
   3  11  19     0.41499   143.99752   140.97575 
   3  11  20     0.39718    66.36221    65.19045 
   3  11  21     0.38073     1.86361     1.87917 
   3  12   1     0.98131  1112.41589  1121.22570 
   3  12   2     0.96252  1151.92210  1158.76024 
   3  12   3     0.93347   925.13365   924.37005 
   3  12   4     0.89688   583.53607   585.09794 
   3  12   5     0.85561   474.66896   473.38584 
   3  12   6     0.81214  1154.57551  1142.91117 
   3  12   7     0.76842    21.08539    21.27658 
   3  12   8     0.72580   630.49175   634.10308 
   3  12   9     0.68514    30.53875    31.08842 
   3  12  10     0.64690    23.15898    22.99913 
   3  12  11     0.61128   406.66262   399.31902 
   3  12  12     0.57830    24.37864    24.06795 
   3  12  13     0.54788   222.11390   219.41814 
   3  12  14     0.51988     0.07644     0.07588 
   3  12  15     0.49413   651.68180   673.45899 
   3  12  16     0.47043    65.13418    67.70496 
   3  12  17     0.44860  2029.98718  2035.53312 
   3  12  18     0.42848    39.93220    39.57221 
   3  12  19     0.40990  1043.31910  1012.97086 
   3  12  20     0.39271    26.57355    26.51601 
   3  12  21     0.37679   816.47502   826.18370 
   3  13   1     0.91430    56.10724    55.81244 
   3  13   2     0.89905   409.99768   409.65854 
   3  13   3     0.87523   638.85489   640.38504 
   3  13   4     0.84486   343.58741   339.82543 
   3  13   5     0.81010   102.34193   101.67975 
   3  13   6     0.77291   126.35726   126.21754 
   3  13   7     0.73495   997.82086  1009.94371 
   3  13   8     0.69740   283.11646   287.69881 
   3  13   9     0.66109   335.61585   338.66561 
   3  13  10     0.62654    14.30728    14.15034 
   3  13  11     0.59402   234.61562   230.19797 
   3  13  12     0.56362   570.61367   566.18909 
   3  13  13     0.53535     7.08810     7.06652 
   3  13  14     0.50914    27.39562    27.64625 
   3  13  15     0.48487   215.69716   220.93793 
   3  13  16     0.46242     4.16758     4.21842 
   3  13  17     0.44164   459.89210   461.69160 
   3  13  18     0.42240   159.63451   156.47923 
   3  13  19     0.40457     6.34735     6.27988 
   3  13  20     0.38802   532.45726   533.30570 
   3  13  21     0.37264    55.39960    59.36429 
   3  14   1     0.85540     0.06215     0.06201 
   3  14   2     0.84287   790.10260   789.08438 
   3  14   3     0.82315    32.76068    32.94571 
   3  14   4     0.79774   734.44332   728.42380 
   3  14   5     0.76827   417.72314   422.20721 
   3  14   6     0.73634   898.99117   894.82078 
   3  14   7     0.70329   970.78946   986.61710 
   3  14   8     0.67018   513.12557   512.21230 
   3  14   9     0.63777   883.29471   873.42261 
   3  14  10     0.60658    59.82613    59.64783 
   3  14  11     0.57692   994.04097   980.79319 
   3  14  12     0.54896     2.60495     2.57211 
   3  14  13     0.52274   515.33753   515.14167 
   3  14  14     0.49825     1.18549     1.19924 
   3  14  15     0.47544   275.02543   281.35917 
   3  14  16     0.45422    64.39103    65.07088 
   3  14  17     0.43448    34.76476    34.62854 
   3  14  18     0.41612     9.82052     9.62032 
   3  14  19     0.39904    14.25283    13.99384 
   3  14  20     0.38314     4.01640     4.04895 
   3  15   1     0.80330   352.56516   351.83045 
   3  15   2     0.79289   172.53860   171.55062 
   3  15   3     0.77641   110.09238   109.01361 
   3  15   4     0.75498   614.65320   617.69751 
   3  15   5     0.72986   745.46189   762.36060 
   3  15   6     0.70232   140.59813   143.08355 
   3  15   7     0.67346   603.58918   608.42560 
   3  15   8     0.64422    92.90599    93.07742 
   3  15   9     0.61528    61.79317    60.98951 
   3  15  10     0.58713  1175.85241  1152.53807 
   3  15  11     0.56011     6.12488     6.03907 
   3  15  12     0.53442    91.46616    91.26107 
   3  15  13     0.51014   120.47685   120.97286 
   3  15  14     0.48731   572.68300   580.58749 
   3  15  15     0.46590   135.36809   138.85368 
   3  15  16     0.44588   359.47816   358.26800 
   3  15  17     0.42716    87.15185    86.81801 
   3  15  18     0.40968   317.33354   308.14358 
   3  15  19     0.39335   131.58924   131.07536 
   3  15  20     0.37809    86.92428    88.10106 
   3  16   1     0.75693  1809.89928  1809.39961 
   3  16   2     0.74821   475.87756   476.55282 
   3  16   3     0.73431  2243.48129  2273.12422 
   3  16   4     0.71610   495.32743   498.65983 
   3  16   5     0.69456   700.16270   704.46790 
   3  16   6     0.67070   518.49462   517.94809 
   3  16   7     0.64543   327.47412   326.36021 
   3  16   8     0.61955   303.55173   302.20021 
   3  16   9     0.59368   305.10684   300.45429 
   3  16  10     0.56828    33.31968    32.85624 
   3  16  11     0.54368   253.88404   251.43138 
   3  16  12     0.52008     0.00237     0.00236 
   3  16  13     0.49763   548.25208   553.65273 
   3  16  14     0.47636     2.23206     2.29074 
   3  16  15     0.45631   735.55155   747.78425 
   3  16  16     0.43745    41.96104    41.64007 
   3  16  17     0.41974  1402.78279  1369.22693 
   3  16  18     0.40312     6.43521     6.31346 
   3  16  19     0.38753  1462.23483  1469.04650 
   3  16  20     0.37291     0.66446     0.70842 
   3  17   1     0.71545   126.42941   126.91982 
   3  17   2     0.70807   200.88314   203.00193 
   3  17   3     0.69626   606.44398   611.18576 
   3  17   4     0.68067   632.42634   648.09981 
   3  17   5     0.66209    67.97700    68.65037 
   3  17   6     0.64132    57.69372    57.38508 
   3  17   7     0.61913   461.61404   460.86017 
   3  17   8     0.59618   159.24751   156.64150 
   3  17   9     0.57302   118.90991   117.13999 
   3  17  10     0.55008    14.03027    13.88187 
   3  17  11     0.52767   266.91735   263.69231 
   3  17  12     0.50602   828.72588   834.01573 
   3  17  13     0.48527     2.63747     2.70316 
   3  17  14     0.46549    54.83537    56.35587 
   3  17  15     0.44673   187.55085   187.56619 
   3  17  16     0.42898     9.04921     8.94080 
   3  17  17     0.41224   320.70769   313.73853 
   3  17  18     0.39646   215.98371   213.26172 
   3  17  19     0.38161     5.67340     5.73060 
   3  18   1     0.67813   148.78591   150.57965 
   3  18   2     0.67184   380.31980   379.92875 
   3  18   3     0.66172   313.05766   316.24336 
   3  18   4     0.64830   175.89189   175.91781 
   3  18   5     0.63219   264.83814   265.28589 
   3  18   6     0.61404   364.92988   360.71188 
   3  18   7     0.59447   891.23867   874.22141 
   3  18   8     0.57407   154.47896   152.62638 
   3  18   9     0.55330   918.19979   908.29272 
   3  18  10     0.53257     0.07933     0.07884 
   3  18  11     0.51216   357.74612   359.03617 
   3  18  12     0.49229     5.51065     5.61900 
   3  18  13     0.47312   656.10481   670.11672 
   3  18  14     0.45473     0.98092     0.99189 
   3  18  15     0.43720   202.02129   200.48714 
   3  18  16     0.42052    22.83050    22.18201 
   3  18  17     0.40471     5.54649     5.48426 
   3  18  18     0.38975    25.33196    25.31862 
   3  18  19     0.37561   147.70959   151.15257 
   3  19   1     0.64441   184.37352   184.62461 
   3  19   2     0.63900   407.44864   403.57842 
   3  19   3     0.63028    17.33800    17.33339 
   3  19   4     0.61865    81.72141    81.99214 
   3  19   5     0.60460   305.09325   304.08616 
   3  19   6     0.58867   421.88576   418.63702 
   3  19   7     0.57136   105.66037   104.38917 
   3  19   8     0.55318     0.00403     0.00399 
   3  19   9     0.53453     9.32217     9.30707 
   3  19  10     0.51576   770.72574   784.44643 
   3  19  11     0.49716    17.36279    17.54289 
   3  19  12     0.47892    16.56537    16.85446 
   3  19  13     0.46122   277.55292   278.42686 
   3  19  14     0.44414   589.38741   589.55436 
   3  19  15     0.42775   177.82405   177.17743 
   3  19  16     0.41210   402.08589   393.72089 
   3  19  17     0.39719    68.61335    67.39894 
   3  19  18     0.38302   155.83328   157.07720 
   3  20   1     0.61380   181.36583   179.06951 
   3  20   2     0.60912   136.94095   134.80330 
   3  20   3     0.60156   929.96827   921.14118 
   3  20   4     0.59142   389.18213   388.23707 
   3  20   5     0.57911    33.85662    33.53558 
   3  20   6     0.56506   149.72901   148.10241 
   3  20   7     0.54970   198.30860   195.86462 
   3  20   8     0.53345    87.04281    86.59114 
   3  20   9     0.51667   386.94142   394.69057 
   3  20  10     0.49966    24.54575    24.87124 
   3  20  11     0.48269    70.28830    72.66293 
   3  20  12     0.46595    26.24036    26.90938 
   3  20  13     0.44960   875.25715   883.65822 
   3  20  14     0.43373     5.87291     5.79178 
   3  20  15     0.41843   763.33912   743.37024 
   3  20  16     0.40375    28.45549    28.07437 
   3  20  17     0.38969   894.77064   894.42216 
   3  20  18     0.37628     0.15219     0.15449 
   3  21   1     0.58591     8.04599     7.86945 
   3  21   2     0.58183    23.86201    23.58822 
   3  21   3     0.57523   179.07378   175.62662 
   3  21   4     0.56634   895.26881   883.53679 
   3  21   5     0.55551     3.78672     3.73555 
   3  21   6     0.54307     9.58267     9.47443 
   3  21   7     0.52939   103.39255   102.05077 
   3  21   8     0.51483     4.91773     4.98751 
   3  21   9     0.49970     6.91826     7.00981 
   3  21  10     0.48426    46.47948    47.65070 
   3  21  11     0.46877   304.16037   313.89826 
   3  21  12     0.45339   589.90648   596.68207 
   3  21  13     0.43828    57.33971    57.22641 
   3  21  14     0.42355    61.65565    60.40290 
   3  21  15     0.40926   207.16766   201.43901 
   3  21  16     0.39549    13.60305    13.47086 
   3  21  17     0.38226   245.40428   247.54377 
   3  22   1     0.56038   564.01393   555.93078 
   3  22   2     0.55681   372.04945   366.25493 
   3  22   3     0.55102  1648.08913  1640.89596 
   3  22   4     0.54319   139.59002   138.07755 
   3  22   5     0.53361   458.65142   456.30063 
   3  22   6     0.52256   411.62190   410.57759 
   3  22   7     0.51034  1509.58237  1515.78498 
   3  22   8     0.49726   129.66964   130.97086 
   3  22   9     0.48358  1606.41192  1653.04274 
   3  22  10     0.46955     4.41849     4.59720 
   3  22  11     0.45538   245.17102   248.85582 
   3  22  12     0.44125    18.94609    19.00901 
   3  22  13     0.42728   984.65489   981.72919 
   3  22  14     0.41360     6.04796     5.89887 
   3  22  15     0.40027   197.60535   194.20188 
   3  22  16     0.38735     5.79589     5.82552 
   3  22  17     0.37489     0.07887     0.08134 
   3  23   1     0.53695    24.97321    24.58277 
   3  23   2     0.53381   270.65716   269.33467 
   3  23   3     0.52869     0.11565     0.11417 
   3  23   4     0.52177     7.43369     7.37005 
   3  23   5     0.51326   146.12523   147.03445 
   3  23   6     0.50340   306.41585   307.77433 
   3  23   7     0.49245    53.20766    54.31596 
   3  23   8     0.48066    12.17165    12.40621 
   3  23   9     0.46828     5.02697     5.14793 
   3  23  10     0.45551   340.80047   346.05326 
   3  23  11     0.44254    15.78162    15.82372 
   3  23  12     0.42953     0.84681     0.83444 
   3  23  13     0.41662   218.77168   213.91919 
   3  23  14     0.40390   353.25033   348.86989 
   3  23  15     0.39146   151.42986   151.03453 
   3  23  16     0.37936   268.89927   270.54389 
   3  24   1     0.51536   170.56621   173.42856 
   3  24   2     0.51258   109.44009   110.03966 
   3  24   3     0.50805  1104.02995  1118.31688 
   3  24   4     0.50190   708.76007   722.15042 
   3  24   5     0.49431     6.36040     6.57305 
   3  24   6     0.48548   215.04885   220.46717 
   3  24   7     0.47564   101.33482   103.78097 
   3  24   8     0.46499   129.24114   132.67749 
   3  24   9     0.45375   266.01377   268.76036 
   3  24  10     0.44210    80.74367    80.95677 
   3  24  11     0.43022     4.96163     4.88929 
   3  24  12     0.41824    38.22427    37.20601 
   3  24  13     0.40629   908.10781   887.36998 
   3  24  14     0.39447    12.27232    12.24243 
   3  24  15     0.38285   690.28016   695.70088 
   3  25   1     0.49542     3.18111     3.26336 
   3  25   2     0.49294     6.58226     6.75391 
   3  25   3     0.48891    89.98044    91.82491 
   3  25   4     0.48342   336.44162   346.47365 
   3  25   5     0.47663    31.55490    32.39038 
   3  25   6     0.46870     5.28747     5.45074 
   3  25   7     0.45983   105.01451   105.32640 
   3  25   8     0.45019     1.91791     1.94514 
   3  25   9     0.43996    22.26386    22.23647 
   3  25  10     0.42932    11.45222    11.29523 
   3  25  11     0.41841    83.72313    81.52616 
   3  25  12     0.40736   269.83552   265.08036 
   3  25  13     0.39630    41.74921    41.23943 
   3  25  14     0.38531    47.82738    47.52081 
   3  25  15     0.37446   109.88715   113.86431 
   3  26   1     0.47693    78.81635    80.92039 
   3  26   2     0.47473   394.58815   401.86372 
   3  26   3     0.47112  1291.90793  1336.44632 
   3  26   4     0.46620   160.61724   164.51923 
   3  26   5     0.46010   161.28731   161.88573 
   3  26   6     0.45296   546.46051   555.12131 
   3  26   7     0.44493  1446.90696  1449.14391 
   3  26   8     0.43618   181.96082   180.48260 
   3  26   9     0.42686  1968.18194  1952.91744 
   3  26  10     0.41712     1.30321     1.27023 
   3  26  11     0.40709   215.03009   210.95265 
   3  26  12     0.39690    47.90394    47.16957 
   3  26  13     0.38665  1269.10219  1271.27174 
   3  26  14     0.37642     7.83630     7.94515 
   3  27   1     0.45976    38.49372    38.60029 
   3  27   2     0.45779    69.27844    69.63244 
   3  27   3     0.45455    31.02430    31.35447 
   3  27   4     0.45013     0.00005     0.00005 
   3  27   5     0.44463   131.05743   131.12567 
   3  27   6     0.43817    58.41939    58.26309 
   3  27   7     0.43089    83.79262    82.64040 
   3  27   8     0.42293     0.06260     0.06129 
   3  27   9     0.41442     4.95724     4.85388 
   3  27  10     0.40549   168.88935   165.76193 
   3  27  11     0.39626     3.99987     3.95123 
   3  27  12     0.38684    35.40820    35.53073 
   3  27  13     0.37733    75.03671    75.97553 
   3  28   1     0.44377   564.21575   565.20865 
   3  28   2     0.44199    47.62911    47.76777 
   3  28   3     0.43907  1947.95311  1947.23029 
   3  28   4     0.43508   625.92379   625.16526 
   3  28   5     0.43011     7.13812     7.03254 
   3  28   6     0.42426   143.23243   140.56439 
   3  28   7     0.41764   219.12529   213.27083 
   3  28   8     0.41038    96.07418    93.41436 
   3  28   9     0.40259   356.07664   347.15774 
   3  28  10     0.39439    96.61277    96.37051 
   3  28  11     0.38588    24.39525    24.25129 
   3  28  12     0.37717    41.14917    41.64514 
   3  29   1     0.42884    46.82576    46.30150 
   3  29   2     0.42723     9.18595     9.15529 
   3  29   3     0.42460    77.68936    76.26566 
   3  29   4     0.42099    90.57919    88.05401 
   3  29   5     0.41648    83.86721    82.07726 
   3  29   6     0.41116    24.38434    23.85824 
   3  29   7     0.40513    66.18063    65.21350 
   3  29   8     0.39849     0.85271     0.83337 
   3  29   9     0.39134     9.15518     9.12836 
   3  29  10     0.38380    13.49143    13.58279 
   3  29  11     0.37594    17.00207    17.32984 
   3  30   1     0.41487     8.33481     8.16108 
   3  30   2     0.41341   241.97166   235.77122 
   3  30   3     0.41102   981.98164   959.61619 
   3  30   4     0.40775    53.61251    52.67501 
   3  30   5     0.40364    42.09338    41.49985 
   3  30   6     0.39880   322.66575   316.08707 
   3  30   7     0.39329  1044.79396  1040.84939 
   3  30   8     0.38720    91.57984    92.04774 
   3  30   9     0.38064  1666.81109  1680.89363 
   3  30  10     0.37368     9.02424     9.47376 
   3  31   1     0.40177    46.11233    45.03076 
   3  31   2     0.40045    17.94852    17.64621 
   3  31   3     0.39827    81.88298    79.96539 
   3  31   4     0.39529    90.20369    89.46969 
   3  31   5     0.39155    52.04691    51.92619 
   3  31   6     0.38712    19.49168    19.58827 
   3  31   7     0.38207    45.80074    46.22111 
   3  31   8     0.37649     0.50044     0.50709 
   3  32   1     0.38946   505.85968   505.79551 
   3  32   2     0.38826    12.82316    12.82263 
   3  32   3     0.38628  1746.66348  1742.44072 
   3  32   4     0.38355   369.81815   372.73530 
   3  32   5     0.38013    19.71248    19.88288 
   3  32   6     0.37608    50.42432    51.31007 
   3  33   1     0.37788    51.40927    52.12747 
   3  33   2     0.37678   105.34352   106.59701 
   3  33   3     0.37497    19.80806    20.41125 
   3  33   4     0.37248    26.99258    29.01287 
   4   0   0     2.20289    37.53437    37.93765 
   4   0   1     2.13337  1208.45692  1235.91780 
   4   0   2     1.95866   259.39159   258.43844 
   4   0   3     1.74367     8.77134     8.82758 
   4   0   4     1.53494    93.45026    92.87937 
   4   0   5     1.35175    83.06143    82.23767 
   4   0   6     1.19745    33.41002    33.56976 
   4   0   7     1.06915  1093.13447  1095.82724 
   4   0   8     0.96245    46.08447    46.35039 
   4   0   9     0.87318    90.00012    89.75028 
   4   0  10     0.79786    30.36461    30.11456 
   4   0  11     0.73373    51.03773    51.69679 
   4   0  12     0.67862    43.88992    44.37394 
   4   0  13     0.63086   262.15907   262.00918 
   4   0  14     0.58914   247.88430   246.17642 
   4   0  15     0.55242    39.24171    39.10552 
   4   0  16     0.51987   227.33282   225.64798 
   4   0  17     0.49086   580.15063   591.60413 
   4   0  18     0.46483   169.64918   173.88296 
   4   0  19     0.44138    26.65556    26.76115 
   4   0  20     0.42013   604.71899   588.72310 
   4   0  21     0.40080   210.39531   207.03419 
   4   0  22     0.38315   364.21667   367.17273 
   4   1   0     2.16991    58.02410    56.64084 
   4   1   1     2.10338   217.42184   215.18697 
   4   1   2     1.93537   738.80141   743.20116 
   4   1   3     1.72718  1217.91890  1217.63835 
   4   1   4     1.52365   227.30141   229.06414 
   4   1   5     1.34402   747.06388   742.06935 
   4   1   6     1.19207   493.78508   488.61138 
   4   1   7     1.06531   461.91221   469.54611 
   4   1   8     0.95965  1422.76923  1434.78446 
   4   1   9     0.87108   248.52223   247.46440 
   4   1  10     0.79626   235.83918   234.44420 
   4   1  11     0.73248   205.33660   208.77403 
   4   1  12     0.67764   163.04520   165.42346 
   4   1  13     0.63007   339.52751   339.45254 
   4   1  14     0.58850    24.60706    24.41650 
   4   1  15     0.55188    29.37652    29.20398 
   4   1  16     0.51943  1451.39109  1438.66864 
   4   1  17     0.49048    33.16680    33.86041 
   4   1  18     0.46452   398.15517   406.52583 
   4   1  19     0.44111     1.48858     1.49209 
   4   1  20     0.41990    47.26254    46.09110 
   4   1  21     0.40060    46.35085    45.59160 
   4   1  22     0.38297    97.03549    97.80508 
   4   2   0     2.07920   801.37833   799.70158 
   4   2   1     2.02045    12.09756    11.91408 
   4   2   2     1.87019  2754.74629  2710.73038 
   4   2   3     1.68037   483.50832   482.36581 
   4   2   4     1.49123  2343.05201  2323.21392 
   4   2   5     1.32161   208.19804   204.74389 
   4   2   6     1.17634   917.92801   933.89939 
   4   2   7     1.05404     1.46276     1.47304 
   4   2   8     0.95139  1119.23736  1123.20134 
   4   2   9     0.86489   746.01554   752.19666 
   4   2  10     0.79152  1434.34927  1432.20552 
   4   2  11     0.72879    26.39248    26.81500 
   4   2  12     0.67471  1139.03090  1155.75396 
   4   2  13     0.62772    42.96170    42.81531 
   4   2  14     0.58658   540.55006   528.05933 
   4   2  15     0.55030  1179.38110  1168.43807 
   4   2  16     0.51811   527.02585   532.59054 
   4   2  17     0.48937    23.35534    23.86265 
   4   2  18     0.46357   524.21994   533.96835 
   4   2  19     0.44030   107.40533   107.20835 
   4   2  20     0.41920   113.43628   110.80979 
   4   2  21     0.39999    83.25364    81.82827 
   4   2  22     0.38244   225.99765   227.87439 
   4   3   0     1.95041    73.64157    74.84556 
   4   3   1     1.90166   116.36608   114.90883 
   4   3   2     1.77480   131.00348   132.67794 
   4   3   3     1.61016   610.05383   603.97243 
   4   3   4     1.44150    71.64409    73.38681 
   4   3   5     1.28662   258.56843   254.80320 
   4   3   6     1.15147   763.64213   754.51241 
   4   3   7     1.03604   158.07266   158.97983 
   4   3   8     0.93808   720.71944   722.08469 
   4   3   9     0.85486   117.93303   117.90308 
   4   3  10     0.78381    71.29166    71.18220 
   4   3  11     0.72276   203.23024   203.88742 
   4   3  12     0.66992    72.77784    72.65830 
   4   3  13     0.62385   286.70513   283.58242 
   4   3  14     0.58342   154.43265   153.37142 
   4   3  15     0.54769    13.42756    13.26064 
   4   3  16     0.51593   816.77230   831.67851 
   4   3  17     0.48753    16.21239    16.43451 
   4   3  18     0.46201   511.95316   518.02819 
   4   3  19     0.43896     1.00045     0.99999 
   4   3  20     0.41804   111.52270   108.52564 
   4   3  21     0.39899    51.31477    50.35765 
   4   3  22     0.38156     5.87020     5.92921 
   4   4   0     1.80464  1030.75744  1039.13549 
   4   4   1     1.76582  2323.50750  2321.81499 
   4   4   2     1.66286   916.39428   909.99727 
   4   4   3     1.52518   140.46900   141.27664 
   4   4   4     1.37957   634.61633   633.61550 
   4   4   5     1.24201     4.92810     4.95358 
   4   4   6     1.11916   904.09173   902.12616 
   4   4   7     1.01231  2654.75048  2647.07507 
   4   4   8     0.92036   376.62489   375.97977 
   4   4   9     0.84139    36.30262    36.00054 
   4   4  10     0.77339   125.30024   125.44124 
   4   4  11     0.71456   147.70619   148.31602 
   4   4  12     0.66337   125.31452   126.86922 
   4   4  13     0.61856   479.56756   481.53240 
   4   4  14     0.57908   571.81622   566.31737 
   4   4  15     0.54410    59.16022    58.63287 
   4   4  16     0.51292   561.97628   565.49982 
   4   4  17     0.48499   952.46247   975.76376 
   4   4  18     0.45984   450.10398   451.46780 
   4   4  19     0.43710    55.44181    55.02981 
   4   4  20     0.41644  1290.09163  1262.81188 
   4   4  21     0.39759   383.96731   375.83309 
   4   4  22     0.38034   772.87007   779.72091 
   4   5   0     1.65780   187.66703   187.80573 
   4   5   1     1.62755    37.67227    37.46678 
   4   5   2     1.54588   211.02747   212.72667 
   4   5   3     1.43341   174.47555   172.12097 
   4   5   4     1.31054    15.10981    15.04149 
   4   5   5     1.19092     8.21418     8.18735 
   4   5   6     1.08135    74.53196    75.40240 
   4   5   7     0.98407     5.37488     5.39436 
   4   5   8     0.89899  2024.23700  2022.30869 
   4   5   9     0.82496    28.54289    28.48335 
   4   5  10     0.76057   239.17631   240.14773 
   4   5  11     0.70442   225.66994   228.79313 
   4   5  12     0.65523   128.30491   128.15416 
   4   5  13     0.61194   196.51262   193.67740 
   4   5  14     0.57364    22.83417    22.54613 
   4   5  15     0.53958     1.52002     1.49808 
   4   5  16     0.50913  1813.23562  1829.91854 
   4   5  17     0.48178     4.80794     4.94302 
   4   5  18     0.45711   260.65756   263.76664 
   4   5  19     0.43475     3.20321     3.19976 
   4   5  20     0.41440    12.21683    11.96184 
   4   5  21     0.39582    60.48355    59.78203 
   4   5  22     0.37879   275.94049   278.51388 
   4   6   0     1.51918   467.84656   469.08632 
   4   6   1     1.49581    68.52473    68.02372 
   4   6   2     1.43167   179.29850   176.22965 
   4   6   3     1.34095   884.31139   872.12598 
   4   6   4     1.23876     1.34013     1.32731 
   4   6   5     1.13629   648.74279   641.68586 
   4   6   6     1.03996     1.93375     1.92109 
   4   6   7     0.95257   201.17031   201.06756 
   4   6   8     0.87478   362.54741   362.96427 
   4   6   9     0.80614   989.02883   986.81674 
   4   6  10     0.74575   980.90021   979.97394 
   4   6  11     0.69259    82.61213    82.81969 
   4   6  12     0.64568   916.62935   913.42939 
   4   6  13     0.60414    10.88170    10.82429 
   4   6  14     0.56720   427.11345   421.93329 
   4   6  15     0.53421   876.81307   873.80856 
   4   6  16     0.50461   380.81320   383.22917 
   4   6  17     0.47795    22.94475    23.44988 
   4   6  18     0.45383   371.83188   375.68586 
   4   6  19     0.43192    97.04580    95.24029 
   4   6  20     0.41195    82.29782    80.64908 
   4   6  21     0.39368    37.76853    37.61156 
   4   6  22     0.37691   196.82272   199.13261 
   4   7   0     1.39300    16.53710    16.69860 
   4   7   1     1.37491    19.95921    20.11772 
   4   7   2     1.32461   103.18395   102.81708 
   4   7   3     1.25178    70.05260    70.45011 
   4   7   4     1.16744     0.60518     0.60694 
   4   7   5     1.08050     2.58011     2.60960 
   4   7   6     0.99668   966.45403   959.22057 
   4   7   7     0.91898     6.68943     6.65984 
   4   7   8     0.84855   270.43157   266.78103 
   4   7   9     0.78547     0.15352     0.15152 
   4   7  10     0.72929     5.02612     5.12254 
   4   7  11     0.67935   249.89601   253.07242 
   4   7  12     0.63491     3.52227     3.52026 
   4   7  13     0.59529   243.83652   240.92494 
   4   7  14     0.55986   325.62336   320.99404 
   4   7  15     0.52806     5.97143     5.89114 
   4   7  16     0.49942   292.36936   296.34359 
   4   7  17     0.47353     3.38494     3.45367 
   4   7  18     0.45004   569.46834   577.16200 
   4   7  19     0.42865     0.00951     0.00941 
   4   7  20     0.40911   190.68670   185.62736 
   4   7  21     0.39120    58.29196    58.10500 
   4   7  22     0.37474    18.72502    19.34218 
   4   8   0     1.28035  2900.37206  2920.86221 
   4   8   1     1.26626  1633.70249  1641.41445 
   4   8   2     1.22664  3787.78641  3797.66374 
   4   8   3     1.16813   362.06203   363.87074 
   4   8   4     1.09871  2566.62283  2580.68968 
   4   8   5     1.02532    91.74209    92.08172 
   4   8   6     0.95288  2158.14721  2154.54267 
   4   8   7     0.88430  2411.46793  2387.44257 
   4   8   8     0.82102   921.87949   921.32722 
   4   8   9     0.76349    16.00196    16.09758 
   4   8  10     0.71160   317.04020   321.95437 
   4   8  11     0.66498   183.96296   187.34462 
   4   8  12     0.62313   242.06155   239.76034 
   4   8  13     0.58555   370.29564   362.12289 
   4   8  14     0.55173   650.84020   647.07186 
   4   8  15     0.52122     5.20894     5.20505 
   4   8  16     0.49363   647.06442   667.41838 
   4   8  17     0.46858   604.32154   621.76857 
   4   8  18     0.44579   577.35701   575.74646 
   4   8  19     0.42497    37.79718    37.15960 
   4   8  20     0.40591  1264.18997  1236.26432 
   4   8  21     0.38840   255.61619   255.42830 
   4   8  22     0.37227   782.42940   844.31066 
   4   9   0     1.18071   335.30915   340.33902 
   4   9   1     1.16964    43.09959    43.42707 
   4   9   2     1.13819   328.20898   324.39617 
   4   9   3     1.09099   195.48179   195.72724 
   4   9   4     1.03379    45.53539    45.38760 
   4   9   5     0.97196    24.78950    25.12127 
   4   9   6     0.90960    19.28160    19.04189 
   4   9   7     0.84939     5.67783     5.61161 
   4   9   8     0.79285  2528.31542  2513.90021 
   4   9   9     0.74067     2.77151     2.79056 
   4   9  10     0.69302   178.45497   178.96849 
   4   9  11     0.64974   282.62634   284.47616 
   4   9  12     0.61054   113.99332   111.90616 
   4   9  13     0.57507   243.68327   239.11292 
   4   9  14     0.54293   106.77124   105.50825 
   4   9  15     0.51379    18.02654    18.13372 
   4   9  16     0.48730  1933.71716  1960.46241 
   4   9  17     0.46316     9.83355     9.99879 
   4   9  18     0.44111   163.28958   163.67818 
   4   9  19     0.42091     5.51332     5.35847 
   4   9  20     0.40237     0.88554     0.86242 
   4   9  21     0.38529    57.84975    57.48113 
   4  10   0     1.09289     8.58121     8.62045 
   4  10   1     1.08409   101.77137   102.92212 
   4  10   2     1.05891    47.23733    47.33691 
   4  10   3     1.02058   603.75361   607.47405 
   4  10   4     0.97330   116.41160   118.11171 
   4  10   5     0.92118   444.99494   443.22414 
   4  10   6     0.86757    50.42973    50.51239 
   4  10   7     0.81487   265.39196   261.96688 
   4  10   8     0.76456   315.05376   318.66576 
   4  10   9     0.71745   592.92662   588.71121 
   4  10  10     0.67388   733.19338   742.10644 
   4  10  11     0.63389    95.64550    95.38747 
   4  10  12     0.59734   746.48774   728.51362 
   4  10  13     0.56399     3.75006     3.72603 
   4  10  14     0.53359   421.05751   418.89553 
   4  10  15     0.50584   541.10167   543.87688 
   4  10  16     0.48050   376.50065   383.20362 
   4  10  17     0.45731    58.49736    59.05928 
   4  10  18     0.43605   351.80460   349.01301 
   4  10  19     0.41651    49.83252    48.76028 
   4  10  20     0.39852   108.61039   106.16593 
   4  10  21     0.38191     3.99016     4.02849 
   4  11   0     1.01546   363.43409   355.93052 
   4  11   1     1.00839    97.74566    97.34574 
   4  11   2     0.98803     7.17886     7.26758 
   4  11   3     0.95668   487.47689   485.96501 
   4  11   4     0.91741    88.02078    87.11067 
   4  11   5     0.87337   274.15964   273.52022 
   4  11   6     0.82729  1623.73544  1614.19729 
   4  11   7     0.78121   102.77358   102.30852 
   4  11   8     0.73655    66.27425    65.83979 
   4  11   9     0.69416    11.23458    11.27707 
   4  11  10     0.65447    68.58604    68.40075 
   4  11  11     0.61766   244.34360   245.58741 
   4  11  12     0.58369     0.37313     0.36931 
   4  11  13     0.55247   379.38919   378.13430 
   4  11  14     0.52379   637.70456   641.60571 
   4  11  15     0.49748    74.36853    75.09283 
   4  11  16     0.47332    80.27089    81.93616 
   4  11  17     0.45110    27.37086    27.62735 
   4  11  18     0.43066   591.38696   583.32761 
   4  11  19     0.41180     4.32923     4.24462 
   4  11  20     0.39439   260.21818   259.56575 
   4  11  21     0.37827    42.01150    42.54792 
   4  12   0     0.94705   159.53768   160.78126 
   4  12   1     0.94130   567.34349   568.45756 
   4  12   2     0.92468   143.78730   141.93090 
   4  12   3     0.89883   168.95437   168.73886 
   4  12   4     0.86603   210.13888   211.30107 
   4  12   5     0.82870    32.18484    32.10456 
   4  12   6     0.78902   550.69144   547.81562 
   4  12   7     0.74875   762.51699   765.16331 
   4  12   8     0.70916   438.13198   443.28080 
   4  12   9     0.67109    27.11439    27.08984 
   4  12  10     0.63503   236.87190   236.81692 
   4  12  11     0.60123    85.68561    84.68908 
   4  12  12     0.56977   238.12644   235.28082 
   4  12  13     0.54062   189.39609   187.24650 
   4  12  14     0.51366   527.43034   530.49555 
   4  12  15     0.48878    36.51248    37.23845 
   4  12  16     0.46580   543.15075   557.42177 
   4  12  17     0.44458   304.83368   304.95164 
   4  12  18     0.42497   565.85769   556.31639 
   4  12  19     0.40683    11.59170    11.35240 
   4  12  20     0.39001  1034.39418  1032.94860 
   4  12  21     0.37440   101.47719   105.22802 
   4  13   0     0.88640    69.94983    69.55490 
   4  13   1     0.88168   138.00751   138.11974 
   4  13   2     0.86798  1111.59859  1115.03890 
   4  13   3     0.84649   743.68676   736.69198 
   4  13   4     0.81892   323.11826   321.18223 
   4  13   5     0.78714   554.86737   553.43746 
   4  13   6     0.75291    21.76094    21.97381 
   4  13   7     0.71768   303.08765   300.13138 
   4  13   8     0.68259  2304.30904  2324.31573 
   4  13   9     0.64844    63.50274    63.56479 
   4  13  10     0.61574   203.35647   200.71575 
   4  13  11     0.58479   172.93106   169.33274 
   4  13  12     0.55572   200.01086   197.26428 
   4  13  13     0.52857   255.90606   252.57899 
   4  13  14     0.50329    80.76535    81.17389 
   4  13  15     0.47982    72.00351    72.98862 
   4  13  16     0.45803  1912.91490  1920.55877 
   4  13  17     0.43781    29.42615    29.25569 
   4  13  18     0.41905   125.26348   122.31101 
   4  13  19     0.40162     2.90936     2.84624 
   4  13  20     0.38541     0.00123     0.00123 
   4  14   0     0.83242   820.53097   820.93623 
   4  14   1     0.82851   113.75897   113.42531 
   4  14   2     0.81711  2074.80668  2067.97854 
   4  14   3     0.79911   136.57780   135.41692 
   4  14   4     0.77579  1730.13184  1703.45870 
   4  14   5     0.74861    48.97720    49.11846 
   4  14   6     0.71898   969.21617   962.06991 
   4  14   7     0.68811   133.64433   135.82531 
   4  14   8     0.65701  1007.65613  1009.28315 
   4  14   9     0.62639    85.87425    84.97962 
   4  14  10     0.59676  1120.66483  1094.32984 
   4  14  11     0.56846    45.84752    45.19664 
   4  14  12     0.54165   950.09916   938.32231 
   4  14  13     0.51642    39.15126    39.94006 
   4  14  14     0.49277   561.24446   574.77741 
   4  14  15     0.47067   203.03687   210.79839 
   4  14  16     0.45005   430.59383   436.44613 
   4  14  17     0.43083   124.27141   122.57367 
   4  14  18     0.41291   361.90581   352.60523 
   4  14  19     0.39621    15.87393    15.68173 
   4  14  20     0.38063   153.18430   154.48229 
   4  15   0     0.78417   626.21847   624.38958 
   4  15   1     0.78090   103.55629   103.11911 
   4  15   2     0.77133     0.03695     0.03705 
   4  15   3     0.75614   568.77591   568.90153 
   4  15   4     0.73630   158.46709   157.79804 
   4  15   5     0.71294   503.13173   509.43151 
   4  15   6     0.68720  1576.44667  1600.58947 
   4  15   7     0.66010   255.99234   258.14270 
   4  15   8     0.63249     0.84911     0.84979 
   4  15   9     0.60504    48.15213    48.01012 
   4  15  10     0.57822    74.36779    73.40127 
   4  15  11     0.55236    99.31203    98.94789 
   4  15  12     0.52767     6.90842     6.82523 
   4  15  13     0.50426   260.88788   262.13820 
   4  15  14     0.48217   931.98060   960.79090 
   4  15  15     0.46141    81.15177    81.52812 
   4  15  16     0.44193    26.90089    26.98329 
   4  15  17     0.42369    27.59300    27.05282 
   4  15  18     0.40662   569.70544   557.26244 
   4  15  19     0.39064     4.17126     4.15711 
   4  15  20     0.37568   304.04376   310.90410 
   4  16   0     0.74087    70.93844    71.45182 
   4  16   1     0.73811    70.81190    70.07109 
   4  16   2     0.73001    61.09168    62.50704 
   4  16   3     0.71709   121.38861   121.14700 
   4  16   4     0.70010    54.37221    55.59866 
   4  16   5     0.67993    44.99523    45.77560 
   4  16   6     0.65750   137.32319   137.74354 
   4  16   7     0.63364    89.01057    88.77985 
   4  16   8     0.60910   105.28604   103.62562 
   4  16   9     0.58447    73.28633    71.92811 
   4  16  10     0.56018    57.34687    56.54095 
   4  16  11     0.53657    23.53808    23.17455 
   4  16  12     0.51385   124.02275   124.78909 
   4  16  13     0.49216    41.05233    41.82938 
   4  16  14     0.47157   372.20075   384.08201 
   4  16  15     0.45209   172.05956   174.43575 
   4  16  16     0.43373   496.58986   489.71255 
   4  16  17     0.41644    75.52673    73.92763 
   4  16  18     0.40020   631.62334   620.69157 
   4  16  19     0.38493     3.21521     3.20091 
   4  17   0     0.70184   160.26117   163.30611 
   4  17   1     0.69949    61.55615    62.59819 
   4  17   2     0.69259   583.34235   584.80709 
   4  17   3     0.68152   316.56778   322.83946 
   4  17   4     0.66689   165.39897   166.12037 
   4  17   5     0.64938   253.83605   254.90266 
   4  17   6     0.62975     0.21481     0.21479 
   4  17   7     0.60870   168.02253   164.82811 
   4  17   8     0.58685  1564.66830  1529.81212 
   4  17   9     0.56472    39.92775    39.63792 
   4  17  10     0.54273   159.87243   157.85044 
   4  17  11     0.52117    61.56902    61.56512 
   4  17  12     0.50028   215.36245   218.28310 
   4  17  13     0.48020    97.86455    99.37202 
   4  17  14     0.46101    36.90908    37.01844 
   4  17  15     0.44276    30.20093    30.29411 
   4  17  16     0.42547  1581.13646  1555.25215 
   4  17  17     0.40912     5.69480     5.54349 
   4  17  18     0.39368   115.34418   114.86481 
   4  17  19     0.37913    15.01523    15.11884 
   4  18   0     0.66651    94.25449    94.88020 
   4  18   1     0.66450   260.69895   265.49484 
   4  18   2     0.65857   390.46707   396.03950 
   4  18   3     0.64904    94.12238    94.40157 
   4  18   4     0.63636   596.62084   593.67013 
   4  18   5     0.62110    37.94662    37.74728 
   4  18   6     0.60386   692.60924   688.32270 
   4  18   7     0.58522   377.98051   369.54624 
   4  18   8     0.56573  1066.58282  1048.67467 
   4  18   9     0.54582     4.43076     4.39370 
   4  18  10     0.52589  1263.62099  1259.00379 
   4  18  11     0.50621    54.51792    54.96029 
   4  18  12     0.48700  1076.24631  1092.87849 
   4  18  13     0.46842   119.94184   123.07984 
   4  18  14     0.45055   614.91587   623.46462 
   4  18  15     0.43348    16.81518    16.58860 
   4  18  16     0.41721   379.69312   369.92364 
   4  18  17     0.40176   185.06420   180.74513 
   4  18  18     0.38711   283.47358   284.86826 
   4  18  19     0.37325     4.46787     4.73271 
   4  19   0     0.63441   173.35588   172.99053 
   4  19   1     0.63268    25.48016    25.48078 
   4  19   2     0.62756   151.25027   150.42349 
   4  19   3     0.61929   139.76607   139.34478 
   4  19   4     0.60825    18.08309    17.69444 
   4  19   5     0.59488   111.04033   109.37136 
   4  19   6     0.57968   981.99357   974.70799 
   4  19   7     0.56314    40.08048    39.70420 
   4  19   8     0.54570    11.83456    11.72869 
   4  19   9     0.52777     1.56855     1.54891 
   4  19  10     0.50969   108.77929   109.43217 
   4  19  11     0.49171    70.64956    71.88543 
   4  19  12     0.47405     1.07181     1.09166 
   4  19  13     0.45686   150.52770   152.69377 
   4  19  14     0.44024   802.33514   800.89554 
   4  19  15     0.42427    44.04350    43.22307 
   4  19  16     0.40898    12.22072    11.91226 
   4  19  17     0.39439     8.85129     8.82913 
   4  19  18     0.38051   448.74726   452.63405 
   4  20   0     0.60514   915.49879   912.90445 
   4  20   1     0.60364     1.42611     1.41774 
   4  20   2     0.59918  1454.56115  1435.34512 
   4  20   3     0.59198   320.67469   320.13203 
   4  20   4     0.58231   941.05058   933.98667 
   4  20   5     0.57055   345.44246   339.63854 
   4  20   6     0.55710   611.53052   602.09448 
   4  20   7     0.54236    19.53895    19.27732 
   4  20   8     0.52674   283.05180   280.49847 
   4  20   9     0.51056   360.15767   361.61270 
   4  20  10     0.49413   113.26621   117.05212 
   4  20  11     0.47770    31.22295    32.00187 
   4  20  12     0.46146   166.21323   167.08418 
   4  20  13     0.44555     2.64230     2.64063 
   4  20  14     0.43010   370.36055   364.87304 
   4  20  15     0.41517   377.25281   369.26172 
   4  20  16     0.40081   550.56675   541.77710 
   4  20  17     0.38705     1.10660     1.11179 
   4  20  18     0.37391   759.07304   793.45178 
   4  21   0     0.57836   278.29762   274.80097 
   4  21   1     0.57705    29.48696    29.06539 
   4  21   2     0.57315   110.46702   108.84756 
   4  21   3     0.56683   131.50044   130.04121 
   4  21   4     0.55833    45.93645    44.96475 
   4  21   5     0.54794    94.84615    93.70259 
   4  21   6     0.53599     0.21864     0.21652 
   4  21   7     0.52283    45.93809    45.96349 
   4  21   8     0.50879  1055.91847  1067.30783 
   4  21   9     0.49416     0.13403     0.13851 
   4  21  10     0.47922    28.99794    29.46413 
   4  21  11     0.46419    77.70021    79.12093 
   4  21  12     0.44925    98.38087    99.04152 
   4  21  13     0.43453    88.73477    88.45527 
   4  21  14     0.42016    17.51400    17.04708 
   4  21  15     0.40621    33.17071    32.41195 
   4  21  16     0.39273   975.05920   972.88951 
   4  21  17     0.37976     1.33469     1.34412 
   4  22   0     0.55377     0.01686     0.01658 
   4  22   1     0.55261   462.05066   460.50931 
   4  22   2     0.54919    17.62835    17.39491 
   4  22   3     0.54363    94.66966    93.74856 
   4  22   4     0.53611    92.25471    91.21783 
   4  22   5     0.52689    60.62345    60.03558 
   4  22   6     0.51624   232.95509   237.49412 
   4  22   7     0.50445   848.74455   853.52842 
   4  22   8     0.49180   545.90633   555.54464 
   4  22   9     0.47856     0.32923     0.33514 
   4  22  10     0.46495   789.62904   810.34869 
   4  22  11     0.45118   109.47312   110.44219 
   4  22  12     0.43742   800.56810   794.42114 
   4  22  13     0.42381   275.03425   269.77792 
   4  22  14     0.41044   504.52351   490.74694 
   4  22  15     0.39741     9.20147     9.02094 
   4  22  16     0.38476   303.83195   302.85526 
   4  22  17     0.37254   261.11850   280.32481 
   4  23   0     0.53112    58.44884    57.54021 
   4  23   1     0.53010    27.41722    26.97523 
   4  23   2     0.52708   101.40750   100.37536 
   4  23   3     0.52215   168.77851   167.53324 
   4  23   4     0.51548    20.26154    20.60866 
   4  23   5     0.50727   154.19195   156.28478 
   4  23   6     0.49775   657.86822   664.48810 
   4  23   7     0.48715    35.21687    35.72073 
   4  23   8     0.47574     1.85127     1.89684 
   4  23   9     0.46372     2.84537     2.89755 
   4  23  10     0.45130   127.48715   128.57722 
   4  23  11     0.43868   119.77134   119.69166 
   4  23  12     0.42600     1.10473     1.08597 
   4  23  13     0.41340   215.53015   209.98937 
   4  23  14     0.40096   450.02588   442.77266 
   4  23  15     0.38878    94.64823    94.53566 
   4  23  16     0.37692    15.64229    15.82583 
   4  24   0     0.51020   625.82797   628.39769 
   4  24   1     0.50930    89.29436    90.04336 
   4  24   2     0.50662  1114.69784  1127.64170 
   4  24   3     0.50224   311.36474   316.64022 
   4  24   4     0.49629   874.95577   890.65404 
   4  24   5     0.48895   441.16501   450.27419 
   4  24   6     0.48041   687.61979   699.28482 
   4  24   7     0.47086    10.57756    10.96578 
   4  24   8     0.46053   428.58585   430.28357 
   4  24   9     0.44960   558.16554   563.53208 
   4  24  10     0.43826   239.38809   238.88597 
   4  24  11     0.42667    34.83278    34.45509 
   4  24  12     0.41498   278.30465   272.46789 
   4  24  13     0.40330     1.36528     1.34217 
   4  24  14     0.39173   411.97674   411.29399 
   4  24  15     0.38035   592.11392   597.36161 
   4  25   0     0.49083    56.34712    57.46525 
   4  25   1     0.49002    50.05174    51.13622 
   4  25   2     0.48763    95.15547    96.47381 
   4  25   3     0.48372   244.16191   251.07360 
   4  25   4     0.47841    89.18844    90.82261 
   4  25   5     0.47182   246.75700   254.32590 
   4  25   6     0.46413    31.43972    32.00797 
   4  25   7     0.45550   116.90566   118.70726 
   4  25   8     0.44613   571.02822   568.76227 
   4  25   9     0.43617     0.44570     0.44208 
   4  25  10     0.42579     0.13978     0.13740 
   4  25  11     0.41514    81.60406    79.87773 
   4  25  12     0.40435    39.19835    38.78769 
   4  25  13     0.39352   129.46261   128.92744 
   4  25  14     0.38275     0.00278     0.00281 
   4  25  15     0.37212    78.83434    85.29159 
   4  26   0     0.47284   116.45367   119.09958 
   4  26   1     0.47212   475.78383   489.35586 
   4  26   2     0.46998   286.72946   298.22984 
   4  26   3     0.46648     7.62816     7.80654 
   4  26   4     0.46170   346.72947   349.70766 
   4  26   5     0.45577     0.01026     0.01042 
   4  26   6     0.44883   445.87571   447.86581 
   4  26   7     0.44102   736.13947   737.35603 
   4  26   8     0.43249   614.77260   607.22744 
   4  26   9     0.42340    51.50901    50.42415 
   4  26  10     0.41389   717.28028   700.91346 
   4  26  11     0.40409    90.87851    89.84705 
   4  26  12     0.39411   707.07081   704.81443 
   4  26  13     0.38407   360.03576   361.66332 
   4  26  14     0.37404   452.00808   471.35822 
   4  27   0     0.45609    40.02168    40.67178 
   4  27   1     0.45544    33.60240    34.11378 
   4  27   2     0.45352     0.24418     0.24680 
   4  27   3     0.45037   235.13642   238.53346 
   4  27   4     0.44607    68.57614    68.30422 
   4  27   5     0.44072   264.87082   264.74619 
   4  27   6     0.43443   352.13724   350.48703 
   4  27   7     0.42733    87.21842    86.98101 
   4  27   8     0.41956    42.79647    41.79923 
   4  27   9     0.41125     0.12828     0.12560 
   4  27  10     0.40252    50.66996    49.37693 
   4  27  11     0.39348    95.86641    95.47467 
   4  27  12     0.38426     0.30119     0.30188 
   4  27  13     0.37493   211.63153   218.17625 
   4  28   0     0.44046   289.06448   288.60910 
   4  28   1     0.43988   222.48082   222.27679 
   4  28   2     0.43815   515.36326   513.88545 
   4  28   3     0.43531   148.03084   147.60827 
   4  28   4     0.43142   396.23783   389.67307 
   4  28   5     0.42657   242.41642   239.41330 
   4  28   6     0.42086   309.86337   301.11743 
   4  28   7     0.41440   158.35691   155.05150 
   4  28   8     0.40730   201.32522   197.73579 
   4  28   9     0.39968   423.28174   416.31527 
   4  28  10     0.39165   144.56982   144.28803 
   4  28  11     0.38332    10.93931    11.02888 
   4  28  12     0.37477   226.78876   234.17924 
   4  29   0     0.42585     0.01544     0.01518 
   4  29   1     0.42533    40.83132    40.16897 
   4  29   2     0.42376    31.38031    30.77545 
   4  29   3     0.42119   202.88520   197.35330 
   4  29   4     0.41766    80.20949    78.06502 
   4  29   5     0.41326   243.28245   236.93274 
   4  29   6     0.40806   103.26714   101.34348 
   4  29   7     0.40216   136.14528   132.58618 
   4  29   8     0.39567   165.01786   163.22611 
   4  29   9     0.38867     4.56989     4.56419 
   4  29  10     0.38127    13.33656    13.46332 
   4  29  11     0.37357    36.21283    38.11267 
   4  30   0     0.41216   131.27919   128.49465 
   4  30   1     0.41169   401.74778   393.96580 
   4  30   2     0.41026   315.36695   306.44113 
   4  30   3     0.40793     1.89807     1.86372 
   4  30   4     0.40472   450.67036   445.58519 
   4  30   5     0.40071    22.53223    22.16965 
   4  30   6     0.39597   672.65446   664.59062 
   4  30   7     0.39057   512.01531   510.33529 
   4  30   8     0.38461   858.28422   856.66025 
   4  30   9     0.37818   125.12218   126.77245 
   4  31   0     0.39931     1.38239     1.35947 
   4  31   1     0.39888    18.53185    18.16774 
   4  31   2     0.39758    13.03231    12.75707 
   4  31   3     0.39546   145.53776   144.15844 
   4  31   4     0.39253    43.18009    43.11039 
   4  31   5     0.38887   172.26954   172.08171 
   4  31   6     0.38453    85.48474    85.39265 
   4  31   7     0.37958    58.05865    58.42877 
   4  31   8     0.37411   135.83197   141.47039 
   4  32   0     0.38722   412.90498   415.02385 
   4  32   1     0.38683   216.18229   216.91209 
   4  32   2     0.38565   696.84563   692.12099 
   4  32   3     0.38371   100.86031   101.60279 
   4  32   4     0.38104   462.94119   466.97663 
   4  32   5     0.37768   181.66895   184.17718 
   4  32   6     0.37370   274.03000   287.58016 
   4  33   0     0.37584     6.46119     6.59450 
   4  33   1     0.37547    26.82321    27.49045 
   4  33   2     0.37440    13.91359    14.42904 
   4  33   3     0.37262   130.85105   140.27483 
   5   0   1     1.72611  1980.60932  1979.69686 
   5   0   2     1.62957   526.88850   526.28887 
   5   0   3     1.49937  3422.65600  3384.60134 
   5   0   4     1.36038   191.71554   192.54400 
   5   0   5     1.22795   126.20803   125.97582 
   5   0   6     1.10884    94.24212    95.26232 
   5   0   7     1.00466   162.19163   160.09910 
   5   0   8     0.91460   128.44705   127.52788 
   5   0   9     0.83698   262.65028   261.66159 
   5   0  10     0.76996    32.92525    32.96202 
   5   0  11     0.71185     0.23533     0.23881 
   5   0  12     0.66120    76.14046    76.85086 
   5   0  13     0.61680   729.26526   728.96272 
   5   0  14     0.57763     4.77035     4.69788 
   5   0  15     0.54290   373.13320   368.66200 
   5   0  16     0.51192    56.19278    56.33501 
   5   0  17     0.48414   263.72632   270.54786 
   5   0  18     0.45912    51.51476    51.63583 
   5   0  19     0.43648  1000.87967   993.07737 
   5   0  20     0.41590   147.95920   144.90524 
   5   0  21     0.39712    29.19689    28.69618 
   5   0  22     0.37993    41.47659    41.80365 
   5   1   1     1.71010   680.66204   682.34654 
   5   1   2     1.61608    32.83680    32.54870 
   5   1   3     1.48884   465.93746   459.03177 
   5   1   4     1.35250     0.03771     0.03729 
   5   1   5     1.22215    19.84626    19.99967 
   5   1   6     1.10456   117.16449   119.22878 
   5   1   7     1.00147   168.79431   169.75577 
   5   1   8     0.91219    80.64232    81.36411 
   5   1   9     0.83513   228.62403   226.67821 
   5   1  10     0.76852   154.40928   155.63873 
   5   1  11     0.71072  1807.98481  1839.10980 
   5   1  12     0.66029   192.23069   193.81515 
   5   1  13     0.61606    71.43303    70.70151 
   5   1  14     0.57703     1.29143     1.27315 
   5   1  15     0.54239   449.02410   443.01214 
   5   1  16     0.51149    54.24792    54.32462 
   5   1  17     0.48378   661.78454   680.30290 
   5   1  18     0.45882     7.90574     7.92903 
   5   1  19     0.43621     3.20415     3.17810 
   5   1  20     0.41567     0.23537     0.23041 
   5   1  21     0.39693    15.08629    14.85206 
   5   1  22     0.37976     4.79045     4.82419 
   5   2   1     1.66463   701.13127   696.06020 
   5   2   2     1.57755   472.55481   469.14048 
   5   2   3     1.45855   207.20214   208.26694 
   5   2   4     1.32967    48.02362    48.33123 
   5   2   5     1.20522    18.56979    18.84322 
   5   2   6     1.09202   100.45840   100.68541 
   5   2   7     0.99210  1702.60717  1730.43518 
   5   2   8     0.90509   254.86928   255.52707 
   5   2   9     0.82967  2442.32563  2441.96100 
   5   2  10     0.76426   124.54906   125.65767 
   5   2  11     0.70734    28.69339    29.08990 
   5   2  12     0.65758    13.03421    13.08557 
   5   2  13     0.61386  1589.78670  1570.05130 
   5   2  14     0.57522     4.30409     4.22134 
   5   2  15     0.54089   272.68006   269.74950 
   5   2  16     0.51023   338.88414   340.27406 
   5   2  17     0.48272    23.17281    23.95350 
   5   2  18     0.45790    36.74841    36.91041 
   5   2  19     0.43543  1289.73312  1284.63002 
   5   2  20     0.41499    26.64256    26.08334 
   5   2  21     0.39634   189.46965   187.14742 
   5   2  22     0.37924    66.18636    66.60995 
   5   3   1     1.59630   431.05655   433.82401 
   5   3   2     1.51902   114.62617   114.89033 
   5   3   3     1.41192   220.56176   219.41727 
   5   3   4     1.29406   150.09116   150.48402 
   5   3   5     1.17851     6.55097     6.64119 
   5   3   6     1.07203    43.39045    43.24729 
   5   3   7     0.97704   395.27717   391.53007 
   5   3   8     0.89361    52.02749    51.93849 
   5   3   9     0.82080    57.56963    57.51524 
   5   3  10     0.75731   329.11498   329.22268 
   5   3  11     0.70182   856.04938   872.35651 
   5   3  12     0.65314     7.49237     7.46750 
   5   3  13     0.61024    25.88878    25.47422 
   5   3  14     0.57224     0.26792     0.26561 
   5   3  15     0.53841   314.77431   312.64459 
   5   3  16     0.50815    37.90641    38.39342 
   5   3  17     0.48095   436.54217   446.18684 
   5   3  18     0.45640   122.02676   124.05923 
   5   3  19     0.43413    19.36363    19.18060 
   5   3  20     0.41387    42.10520    41.14028 
   5   3  21     0.39536     4.79299     4.75141 
   5   3  22     0.37838     0.12047     0.12194 
   5   4   1     1.51338  1254.45567  1248.58951 
   5   4   2     1.44705  1963.64574  1989.22110 
   5   4   3     1.35357  3206.96963  3172.78536 
   5   4   4     1.24869    19.97895    20.00143 
   5   4   5     1.14394     0.22479     0.22458 
   5   4   6     1.04581  1235.14872  1246.45445 
   5   4   7     0.95706    44.94636    44.82359 
   5   4   8     0.87825   994.36151   992.40086 
   5   4   9     0.80885   217.51460   217.89413 
   5   4  10     0.74789     1.60287     1.60402 
   5   4  11     0.69431    18.98620    19.07334 
   5   4  12     0.64707   183.55519   182.20639 
   5   4  13     0.60528  1046.48593  1043.69367 
   5   4  14     0.56814    12.33781    12.16785 
   5   4  15     0.53499   571.40830   570.91980 
   5   4  16     0.50527    72.13603    72.50791 
   5   4  17     0.47851   444.45626   452.46020 
   5   4  18     0.45431    65.77108    66.46468 
   5   4  19     0.43234  1716.21048  1691.09464 
   5   4  20     0.41231   272.21074   266.15958 
   5   4  21     0.39400    63.94652    63.71919 
   5   4  22     0.37719    66.63504    67.44163 
   5   5   1     1.42360   111.01531   111.73112 
   5   5   2     1.36798    29.45593    29.23650 
   5   5   3     1.28819   389.44463   382.89405 
   5   5   4     1.19681    15.17512    15.18881 
   5   5   5     1.10365     2.77636     2.80728 
   5   5   6     1.01476   371.25453   363.95963 
   5   5   7     0.93310   924.32466   921.29736 
   5   5   8     0.85962   109.84420   109.34191 
   5   5   9     0.79423    91.37692    90.75954 
   5   5  10     0.73629     2.47010     2.45981 
   5   5  11     0.68499   572.66836   583.32865 
   5   5  12     0.63951   290.09088   287.19838 
   5   5  13     0.59908    47.76794    47.14470 
   5   5  14     0.56300    76.32672    75.57957 
   5   5  15     0.53070   144.03561   141.46222 
   5   5  16     0.50165   153.26558   156.17543 
   5   5  17     0.47543   526.52183   538.60992 
   5   5  18     0.45167     8.99007     9.07603 
   5   5  19     0.43006     5.53524     5.45280 
   5   5  20     0.41034    40.75152    39.61357 
   5   5  21     0.39227    20.90778    20.88818 
   5   5  22     0.37568    20.62988    21.09557 
   5   6   1     1.33291    55.31185    55.13893 
   5   6   2     1.28693  1348.15146  1327.18169 
   5   6   3     1.21984  1480.15534  1479.85487 
   5   6   4     1.14140  1131.74869  1121.83289 
   5   6   5     1.05975   399.58418   401.63146 
   5   6   6     0.98032  1360.38767  1366.57414 
   5   6   7     0.90611  2889.06072  2875.36557 
   5   6   8     0.83839  1227.15829  1219.87814 
   5   6   9     0.77739  3205.27843  3208.15202 
   5   6  10     0.72281   429.77283   431.18467 
   5   6  11     0.67410   284.45745   288.31869 
   5   6  12     0.63062     0.10473     0.10469 
   5   6  13     0.59175  1804.35350  1801.52732 
   5   6  14     0.55691     1.45475     1.43224 
   5   6  15     0.52558   446.08594   445.68831 
   5   6  16     0.49732   205.03102   207.05789 
   5   6  17     0.47174     2.09136     2.15634 
   5   6  18     0.44850    41.58531    41.66525 
   5   6  19     0.42733  1184.93859  1181.69904 
   5   6  20     0.40796    30.51661    29.96073 
   5   6  21     0.39019   271.15839   270.59021 
   5   6  22     0.37385    44.20794    46.26100 
   5   7   1     1.24524   226.77513   225.70850 
   5   7   2     1.20749   206.07095   207.37201 
   5   7   3     1.15156   103.94031   102.73104 
   5   7   4     1.08489   480.51050   485.24135 
   5   7   5     1.01406   252.49689   248.35690 
   5   7   6     0.94382     4.07705     4.07421 
   5   7   7     0.87705  1068.41307  1067.42435 
   5   7   8     0.81521    25.94221    25.58189 
   5   7   9     0.75880    81.04951    80.98869 
   5   7  10     0.70780   465.88516   471.17444 
   5   7  11     0.66187    37.30943    37.68682 
   5   7  12     0.62058    68.30434    67.97779 
   5   7  13     0.58343    10.10203    10.03125 
   5   7  14     0.54996     1.23810     1.22424 
   5   7  15     0.51973    92.94884    92.14431 
   5   7  16     0.49235    28.92366    29.50542 
   5   7  17     0.46749   157.38554   160.52237 
   5   7  18     0.44485   329.98147   330.39957 
   5   7  19     0.42416    35.00463    34.35348 
   5   7  20     0.40520   126.30131   124.36004 
   5   7  21     0.38778     0.00242     0.00243 
   5   8   1     1.16281   770.63548   761.47026 
   5   8   2     1.13190  2006.23355  2002.80536 
   5   8   3     1.08544  1683.60231  1697.90031 
   5   8   4     1.02907   377.83988   368.78079 
   5   8   5     0.96803     9.27505     9.39419 
   5   8   6     0.90637  1870.15056  1858.52575 
   5   8   7     0.84676     1.43380     1.42085 
   5   8   8     0.79071  1410.33919  1407.51254 
   5   8   9     0.73893    35.61014    35.49659 
   5   8  10     0.69159    75.21150    75.81121 
   5   8  11     0.64856    19.75468    19.78633 
   5   8  12     0.60957   161.15984   159.01960 
   5   8  13     0.57425   622.31736   614.60808 
   5   8  14     0.54225     4.17311     4.11725 
   5   8  15     0.51321   489.34590   492.42722 
   5   8  16     0.48680    46.65607    47.47823 
   5   8  17     0.46273   476.90744   482.91520 
   5   8  18     0.44074    28.17886    28.16954 
   5   8  19     0.42059  1297.55855  1260.61176 
   5   8  20     0.40209   179.51688   174.86575 
   5   8  21     0.38505   121.77391   121.14613 
   5   9   1     1.08665   268.68455   270.03644 
   5   9   2     1.06130    86.79601    87.82453 
   5   9   3     1.02272   766.39784   755.60660 
   5   9   4     0.97516   204.83286   203.86112 
   5   9   5     0.92275    38.23205    37.86786 
   5   9   6     0.86889   403.28522   405.40838 
   5   9   7     0.81595   946.32600   934.21341 
   5   9   8     0.76545   122.12297   124.21847 
   5   9   9     0.71819   191.49534   189.16478 
   5   9  10     0.67450    16.14425    16.38149 
   5   9  11     0.63440   406.73106   405.86439 
   5   9  12     0.59777   550.57574   539.25212 
   5   9  13     0.56435    74.09593    73.66501 
   5   9  14     0.53389   100.11481    99.64262 
   5   9  15     0.50610    74.10402    74.63340 
   5   9  16     0.48073   165.85095   169.14565 
   5   9  17     0.45750   426.82026   430.02140 
   5   9  18     0.43622    86.48901    85.78577 
   5   9  19     0.41666    23.68088    23.14958 
   5   9  20     0.39865   116.29771   113.77168 
   5   9  21     0.38202    22.96859    23.18262 
   5  10   1     1.01702    59.40532    58.53585 
   5  10   2     0.99615   685.19651   677.97404 
   5  10   3     0.96404   308.68809   311.44064 
   5  10   4     0.92390   440.30118   435.02384 
   5  10   5     0.87897   297.43485   297.80342 
   5  10   6     0.83204   609.49469   609.07716 
   5  10   7     0.78521  2151.58977  2126.25348 
   5  10   8     0.73990   621.32790   622.97875 
   5  10   9     0.69696  2541.17181  2574.10219 
   5  10  10     0.65682   214.46844   214.94992 
   5  10  11     0.61963   546.68997   544.14754 
   5  10  12     0.58536     1.74811     1.70926 
   5  10  13     0.55387  1268.67629  1247.03472 
   5  10  14     0.52499     3.75625     3.77749 
   5  10  15     0.49851   392.19141   397.16623 
   5  10  16     0.47420   136.25735   138.69300 
   5  10  17     0.45187    29.27194    29.60154 
   5  10  18     0.43132    13.85677    13.63582 
   5  10  19     0.41239   740.79264   723.94676 
   5  10  20     0.39490    23.04706    22.94314 
   5  10  21     0.37872   351.82149   355.28585 
   5  11   1     0.95375   950.66350   946.99724 
   5  11   2     0.93647   425.34279   425.89876 
   5  11   3     0.90964   235.23824   232.37937 
   5  11   4     0.87569   456.56029   457.95035 
   5  11   5     0.83715   344.17841   342.92115 
   5  11   6     0.79630    30.67419    30.49105 
   5  11   7     0.75497   347.37965   349.11142 
   5  11   8     0.71443    14.26660    14.33395 
   5  11   9     0.67555    31.93774    32.45001 
   5  11  10     0.63881   720.91973   714.10220 
   5  11  11     0.60444   130.23477   129.73351 
   5  11  12     0.57250   113.84342   112.56015 
   5  11  13     0.54294    78.11028    77.18935 
   5  11  14     0.51566    37.30451    37.96020 
   5  11  15     0.49049   163.37740   166.78973 
   5  11  16     0.46729     1.57804     1.61099 
   5  11  17     0.44588    89.43105    89.13104 
   5  11  18     0.42610   427.43201   420.26494 
   5  11  19     0.40782    75.16512    73.83648 
   5  11  20     0.39088   219.50048   218.70878 
   5  11  21     0.37517     1.17295     1.20609 
   5  12   1     0.89640  3430.53027  3442.45689 
   5  12   2     0.88200   499.54012   499.28845 
   5  12   3     0.85949  3138.19298  3123.23769 
   5  12   4     0.83067     4.54068     4.53165 
   5  12   5     0.79756   480.56467   476.66653 
   5  12   6     0.76200   248.52968   251.75090 
   5  12   7     0.72555   100.74075   101.42639 
   5  12   8     0.68935   265.12473   268.90656 
   5  12   9     0.65423    99.79321    99.65860 
   5  12  10     0.62069     4.78455     4.76120 
   5  12  11     0.58902    63.79538    63.32896 
   5  12  12     0.55935    34.45611    33.90837 
   5  12  13     0.53169   568.37306   561.41483 
   5  12  14     0.50599     0.06940     0.06982 
   5  12  15     0.48215   704.27140   725.89055 
   5  12  16     0.46005    52.07329    52.26032 
   5  12  17     0.43958   784.28203   784.20232 
   5  12  18     0.42059    13.02660    12.65567 
   5  12  19     0.40298   985.84851   965.53327 
   5  12  20     0.38662    64.26313    64.35308 
   5  13   1     0.84446   606.68851   600.74308 
   5  13   2     0.83239   141.74675   141.81310 
   5  13   3     0.81339   948.68385   941.62674 
   5  13   4     0.78884   376.73432   374.57083 
   5  13   5     0.76032     0.31380     0.31488 
   5  13   6     0.72933   419.07677   427.21584 
   5  13   7     0.69717   148.97570   151.16618 
   5  13   8     0.66487   160.36155   163.33796 
   5  13   9     0.63319    10.31754    10.29845 
   5  13  10     0.60264    32.90068    32.79927 
   5  13  11     0.57353  1095.35435  1081.04291 
   5  13  12     0.54603   749.53471   743.79379 
   5  13  13     0.52021    23.76655    23.69403 
   5  13  14     0.49606    82.06140    83.72671 
   5  13  15     0.47354   198.70181   202.73326 
   5  13  16     0.45256   138.32237   140.79649 
   5  13  17     0.43303   474.30440   469.79891 
   5  13  18     0.41484   177.71100   174.01083 
   5  13  19     0.39791    15.87552    15.50820 
   5  13  20     0.38214   155.54129   156.94384 
   5  14   1     0.79740   323.02784   320.47006 
   5  14   2     0.78721   195.20609   194.69517 
   5  14   3     0.77108    15.36474    15.41697 
   5  14   4     0.75007    16.27435    16.37541 
   5  14   5     0.72542   150.96810   152.08534 
   5  14   6     0.69836    64.63580    65.60366 
   5  14   7     0.66997  1004.37143  1002.61367 
   5  14   8     0.64116    91.15501    90.69111 
   5  14   9     0.61261  1284.28502  1265.24991 
   5  14  10     0.58481    11.62384    11.38004 
   5  14  11     0.55810   648.37224   635.05357 
   5  14  12     0.53267     0.00901     0.00896 
   5  14  13     0.50862   560.05518   566.53548 
   5  14  14     0.48598     1.04396     1.07065 
   5  14  15     0.46474   266.63544   272.99616 
   5  14  16     0.44486    68.51549    68.60508 
   5  14  17     0.42627    84.95992    83.61232 
   5  14  18     0.40889     0.00203     0.00198 
   5  14  19     0.39265   320.70321   320.07003 
   5  14  20     0.37747    14.74739    14.93992 
   5  15   1     0.75469   647.66279   651.46781 
   5  15   2     0.74604   310.49136   310.36987 
   5  15   3     0.73226    55.26983    56.20152 
   5  15   4     0.71420   670.74136   674.79665 
   5  15   5     0.69282   170.90267   171.37087 
   5  15   6     0.66913    15.21672    15.28010 
   5  15   7     0.64404    23.10954    23.14555 
   5  15   8     0.61832    25.51060    25.64867 
   5  15   9     0.59260   268.20086   266.89681 
   5  15  10     0.56733   703.72025   694.83007 
   5  15  11     0.54284   244.03783   241.05919 
   5  15  12     0.51935   204.81632   203.08588 
   5  15  13     0.49699   358.03717   362.06880 
   5  15  14     0.47580    24.35994    24.97016 
   5  15  15     0.45582   273.90546   278.24268 
   5  15  16     0.43702     1.65151     1.63949 
   5  15  17     0.41935    73.89447    72.19355 
   5  15  18     0.40278   484.43788   473.23219 
   5  15  19     0.38723   125.36899   126.01273 
   5  15  20     0.37264   219.52737   235.23152 
   5  16   1     0.71585  2799.93260  2816.72253 
   5  16   2     0.70846   250.04214   252.60654 
   5  16   3     0.69663  1657.34712  1674.07999 
   5  16   4     0.68102    92.22579    94.52804 
   5  16   5     0.66241   818.59745   826.44229 
   5  16   6     0.64162   160.91165   159.97368 
   5  16   7     0.61939   134.57930   134.07423 
   5  16   8     0.59642   142.52607   139.73229 
   5  16   9     0.57323    89.42206    88.12390 
   5  16  10     0.55026    13.99669    13.86372 
   5  16  11     0.52784   352.27901   347.77340 
   5  16  12     0.50617     0.05534     0.05576 
   5  16  13     0.48539   388.97206   398.72681 
   5  16  14     0.46560     0.48365     0.49683 
   5  16  15     0.44683   794.74668   795.46570 
   5  16  16     0.42907    34.39533    33.96759 
   5  16  17     0.41232  1049.81663  1026.44050 
   5  16  18     0.39653     0.39763     0.39253 
   5  16  19     0.38167   605.67326   611.74909 
   5  17   1     0.68046    71.32476    72.99340 
   5  17   2     0.67410   278.41183   282.18908 
   5  17   3     0.66388   337.71776   343.16838 
   5  17   4     0.65033   170.28420   171.87339 
   5  17   5     0.63407     9.08576     9.06181 
   5  17   6     0.61576   565.30739   558.01081 
   5  17   7     0.59604    62.62724    61.70828 
   5  17   8     0.57548   206.29763   202.36934 
   5  17   9     0.55457     1.92317     1.89008 
   5  17  10     0.53369    56.81163    56.52503 
   5  17  11     0.51316   723.25436   727.86386 
   5  17  12     0.49318   500.95376   515.19006 
   5  17  13     0.47391    38.04266    38.77413 
   5  17  14     0.45543   133.50519   135.53331 
   5  17  15     0.43782   166.71404   165.75767 
   5  17  16     0.42108   174.16432   169.35554 
   5  17  17     0.40521   368.48071   362.79653 
   5  17  18     0.39019   148.12800   147.81777 
   5  17  19     0.37601     8.20791     8.35937 
   5  18   1     0.64812    43.03413    42.97933 
   5  18   2     0.64262   449.76109   447.61272 
   5  18   3     0.63375    28.28700    28.21117 
   5  18   4     0.62193   266.07647   263.65773 
   5  18   5     0.60766   956.36339   938.54630 
   5  18   6     0.59149   508.81456   507.69691 
   5  18   7     0.57394  1169.20434  1155.21794 
   5  18   8     0.55552   321.75275   317.40306 
   5  18   9     0.53664  1098.09637  1080.77187 
   5  18  10     0.51766    26.14068    26.51529 
   5  18  11     0.49885  1267.78395  1285.25565 
   5  18  12     0.48044    13.82624    14.06482 
   5  18  13     0.46257   335.28885   339.35437 
   5  18  14     0.44535     0.20850     0.20872 
   5  18  15     0.42883   310.88191   307.41117 
   5  18  16     0.41306    11.59476    11.29159 
   5  18  17     0.39805   261.06384   254.93840 
   5  18  18     0.38379     6.11110     6.15265 
   5  19   1     0.61849   103.78388   104.26291 
   5  19   2     0.61371   152.83309   150.83054 
   5  19   3     0.60597     1.34664     1.34457 
   5  19   4     0.59561   669.15847   661.35473 
   5  19   5     0.58304   163.05042   162.43577 
   5  19   6     0.56871     0.62783     0.61858 
   5  19   7     0.55306    58.21298    57.78711 
   5  19   8     0.53652    31.44036    30.96357 
   5  19   9     0.51945    42.60023    42.22294 
   5  19  10     0.50218   475.74870   484.03641 
   5  19  11     0.48496    14.25283    14.60089 
   5  19  12     0.46799   248.39336   253.55588 
   5  19  13     0.45143   172.40814   173.88148 
   5  19  14     0.43538     0.73094     0.72840 
   5  19  15     0.41991   128.57248   125.37535 
   5  19  16     0.40507    11.33147    11.17216 
   5  19  17     0.39089    19.26185    19.19243 
   5  19  18     0.37736   441.29424   446.86013 
   5  20   1     0.59128  1568.46673  1564.05069 
   5  20   2     0.58709   313.71749   307.37877 
   5  20   3     0.58031   311.54277   310.33703 
   5  20   4     0.57119   774.21105   762.98901 
   5  20   5     0.56008   549.08037   541.37858 
   5  20   6     0.54734   569.43352   562.28811 
   5  20   7     0.53335     2.29624     2.28413 
   5  20   8     0.51847   406.35167   408.58897 
   5  20   9     0.50302     1.96717     1.98186 
   5  20  10     0.48728   175.01893   177.44587 
   5  20  11     0.47150   413.03398   426.33052 
   5  20  12     0.45587     0.07705     0.07828 
   5  20  13     0.44051   109.94830   109.79206 
   5  20  14     0.42556     4.41193     4.33877 
   5  20  15     0.41108   669.22031   654.38724 
   5  20  16     0.39713    21.74585    21.37145 
   5  20  17     0.38374  1176.73124  1185.13101 
   5  21   1     0.56622    23.70799    23.37394 
   5  21   2     0.56254   182.90646   180.75946 
   5  21   3     0.55656   232.70350   229.04053 
   5  21   4     0.54851   104.06963   102.86211 
   5  21   5     0.53864     4.31710     4.28755 
   5  21   6     0.52728   365.29964   361.44783 
   5  21   7     0.51474   123.34630   124.99643 
   5  21   8     0.50132   163.09471   165.93660 
   5  21   9     0.48732    37.04261    37.55292 
   5  21  10     0.47297    30.28504    30.95046 
   5  21  11     0.45850   191.17527   191.78787 
   5  21  12     0.44408   290.99235   291.12127 
   5  21  13     0.42985     1.50118     1.47854 
   5  21  14     0.41593    93.40665    91.48369 
   5  21  15     0.40238    45.83239    44.63684 
   5  21  16     0.38927   130.56254   130.52082 
   5  21  17     0.37663   155.02738   156.95682 
   5  22   1     0.54309   122.86940   121.48997 
   5  22   2     0.53984   483.29457   475.73400 
   5  22   3     0.53455     3.44177     3.43650 
   5  22   4     0.52740   305.05847   301.73114 
   5  22   5     0.51861  1654.11170  1659.04190 
   5  22   6     0.50845   744.78161   753.90956 
   5  22   7     0.49717  1326.97068  1340.62723 
   5  22   8     0.48505   442.37817   453.24165 
   5  22   9     0.47233  1133.26565  1163.47285 
   5  22  10     0.45923    33.53650    33.60821 
   5  22  11     0.44595  2145.22398  2137.08690 
   5  22  12     0.43265    66.35113    65.68094 
   5  22  13     0.41947   256.19549   250.26996 
   5  22  14     0.40649     0.14837     0.14505 
   5  22  15     0.39382   369.49396   368.02296 
   5  22  16     0.38150     0.15535     0.15690 
   5  23   1     0.52167   238.81980   236.93810 
   5  23   2     0.51879    91.21515    91.18585 
   5  23   3     0.51409    36.23306    36.50112 
   5  23   4     0.50772   270.11990   273.68938 
   5  23   5     0.49987   226.43559   229.42620 
   5  23   6     0.49075     0.86569     0.88312 
   5  23   7     0.48059    64.84064    66.04438 
   5  23   8     0.46962    20.53099    21.36229 
   5  23   9     0.45804     8.42763     8.46088 
   5  23  10     0.44607   260.06803   259.03684 
   5  23  11     0.43387     0.30021     0.29631 
   5  23  12     0.42159   117.80133   114.78495 
   5  23  13     0.40936    83.11842    80.78178 
   5  23  14     0.39728     0.54410     0.53405 
   5  23  15     0.38542    49.07891    48.74820 
   5  23  16     0.37385    11.74038    12.28473 
   5  24   1     0.50181  2429.89620  2476.38022 
   5  24   2     0.49924    75.01485    76.05287 
   5  24   3     0.49505   325.71810   335.03006 
   5  24   4     0.48936   556.26406   568.33461 
   5  24   5     0.48231  1009.56874  1041.94459 
   5  24   6     0.47411   222.73173   226.79451 
   5  24   7     0.46493     5.34908     5.48823 
   5  24   8     0.45497   181.10239   183.36326 
   5  24   9     0.44442    21.27724    21.27884 
   5  24  10     0.43346   173.84957   171.53080 
   5  24  11     0.42224   564.28214   552.70529 
   5  24  12     0.41090     7.00850     6.84158 
   5  24  13     0.39955    32.97775    32.44144 
   5  24  14     0.38829     9.26956     9.26763 
   5  24  15     0.37720   638.24915   645.98796 
   5  25   1     0.48334   222.18064   228.89465 
   5  25   2     0.48105    64.14870    65.62273 
   5  25   3     0.47729   351.60148   361.04208 
   5  25   4     0.47218    27.03777    27.79390 
   5  25   5     0.46585    40.92316    41.98858 
   5  25   6     0.45844   162.64520   163.17565 
   5  25   7     0.45012    47.17179    47.83177 
   5  25   8     0.44107   108.46205   108.68694 
   5  25   9     0.43144     1.56871     1.54251 
   5  25  10     0.42139     1.04505     1.01728 
   5  25  11     0.41106   143.80240   140.56931 
   5  25  12     0.40057   114.28370   112.40196 
   5  25  13     0.39004    18.62553    18.59756 
   5  25  14     0.37954    31.79412    31.99337 
   5  26   1     0.46613    18.72891    19.18981 
   5  26   2     0.46407   223.22661   227.24099 
   5  26   3     0.46070    93.57979    93.93011 
   5  26   4     0.45610    30.13538    30.62570 
   5  26   5     0.45038  1312.91002  1331.86735 
   5  26   6     0.44368   278.93515   279.54860 
   5  26   7     0.43613   820.29626   813.64148 
   5  26   8     0.42788   136.44160   135.83283 
   5  26   9     0.41907   701.53995   685.04772 
   5  26  10     0.40984     1.64983     1.60186 
   5  26  11     0.40032  2212.28853  2174.32671 
   5  26  12     0.39061    51.23995    51.06822 
   5  26  13     0.38082   130.99478   132.08708 
   5  27   1     0.45006   330.03913   334.55164 
   5  27   2     0.44821     6.20339     6.20450 
   5  27   3     0.44517   118.90675   119.11598 
   5  27   4     0.44101   103.01874   103.18760 
   5  27   5     0.43584   133.64201   132.69475 
   5  27   6     0.42975    14.95809    14.73284 
   5  27   7     0.42288    11.15734    10.92665 
   5  27   8     0.41535    26.57122    26.00518 
   5  27   9     0.40727    35.18329    34.55124 
   5  27  10     0.39879    72.54458    71.06000 
   5  27  11     0.39000    38.11522    38.06362 
   5  27  12     0.38101    35.81623    36.12537 
   5  28   1     0.43503  2574.92010  2572.35322 
   5  28   2     0.43335     5.77830     5.70605 
   5  28   3     0.43060   323.29039   318.86584 
   5  28   4     0.42684   327.76339   325.10363 
   5  28   5     0.42214  1419.77133  1389.67855 
   5  28   6     0.41661    39.74165    38.86320 
   5  28   7     0.41034    57.91882    56.30120 
   5  28   8     0.40344    29.19488    28.73849 
   5  28   9     0.39603     0.94929     0.93785 
   5  28  10     0.38822    79.69368    79.71042 
   5  28  11     0.38009   828.01383   835.09812 
   5  29   1     0.42094   169.95686   165.19411 
   5  29   2     0.41942    23.72900    23.18149 
   5  29   3     0.41692   161.55225   157.64647 
   5  29   4     0.41350    31.15819    30.37333 
   5  29   5     0.40923    35.38128    34.41226 
   5  29   6     0.40418   102.06853   100.95118 
   5  29   7     0.39844     4.46035     4.35821 
   5  29   8     0.39212    89.38444    89.31481 
   5  29   9     0.38531    12.80686    12.72461 
   5  29  10     0.37810    12.72139    12.89318 
   5  30   1     0.40770    81.52563    80.10798 
   5  30   2     0.40632   192.66216   188.26637 
   5  30   3     0.40405    55.05364    54.41876 
   5  30   4     0.40094    17.39806    17.11843 
   5  30   5     0.39703  1283.08578  1262.03895 
   5  30   6     0.39242   225.54522   225.25717 
   5  30   7     0.38716   651.75221   655.05249 
   5  30   8     0.38136    81.82278    82.61980 
   5  30   9     0.37508   502.12542   516.81601 
   5  31   1     0.39525    98.50545    97.74156 
   5  31   2     0.39399    26.53715    26.44229 
   5  31   3     0.39192    70.64136    70.56693 
   5  31   4     0.38908    25.56380    25.54617 
   5  31   5     0.38551    28.47037    28.27558 
   5  31   6     0.38128    98.36907    99.30568 
   5  31   7     0.37645     2.07955     2.10775 
   5  32   1     0.38352  1849.65052  1864.39624 
   5  32   2     0.38237    10.81265    10.90408 
   5  32   3     0.38047   180.48947   182.06467 
   5  32   4     0.37787   401.98630   407.60698 
   5  32   5     0.37460  1095.98381  1133.80633 
   5  33   1     0.37244    69.37408    74.61724 
   6   0   0     1.46859   294.82588   293.65005 
   6   0   1     1.44744     0.64192     0.64924 
   6   0   2     1.38909    80.86446    81.23724 
   6   0   3     1.30578     8.49310     8.42592 
   6   0   4     1.21087   252.19840   251.92668 
   6   0   5     1.11465   115.32040   115.20684 
   6   0   6     1.02329   706.88390   698.70023 
   6   0   7     0.93971    49.31618    49.36333 
   6   0   8     0.86479    61.12102    61.61106 
   6   0   9     0.79830   204.31507   202.65118 
   6   0  10     0.73953   243.29421   243.44543 
   6   0  11     0.68760    51.16065    52.02437 
   6   0  12     0.64163   189.25913   188.15160 
   6   0  13     0.60082     2.68758     2.65497 
   6   0  14     0.56445    44.03471    43.77057 
   6   0  15     0.53191   478.28859   473.25095 
   6   0  16     0.50267   728.61129   737.39148 
   6   0  17     0.47630    10.09948    10.36435 
   6   0  18     0.45241   519.91783   528.91903 
   6   0  19     0.43070    98.92203    97.57877 
   6   0  20     0.41089   520.17596   507.77475 
   6   0  21     0.39276     3.07789     3.07076 
   6   0  22     0.37610  1010.45722  1027.86814 
   6   1   0     1.45870    11.06208    11.11605 
   6   1   1     1.43797    56.27487    56.66464 
   6   1   2     1.38071    33.93557    33.84757 
   6   1   3     1.29881    42.58922    42.21244 
   6   1   4     1.20531   139.35827   141.40991 
   6   1   5     1.11030     5.78837     5.80360 
   6   1   6     1.01993    16.10916    16.27314 
   6   1   7     0.93711   119.71945   119.86346 
   6   1   8     0.86276    11.97276    11.96160 
   6   1   9     0.79670   771.45462   766.37764 
   6   1  10     0.73825   903.99728   895.49884 
   6   1  11     0.68657  1018.91476  1031.20419 
   6   1  12     0.64080   235.03590   233.85975 
   6   1  13     0.60013   670.06848   662.16055 
   6   1  14     0.56388    30.52312    30.31695 
   6   1  15     0.53143   239.31661   236.00906 
   6   1  16     0.50227   728.24956   740.36549 
   6   1  17     0.47596     0.17832     0.18289 
   6   1  18     0.45212   326.04150   330.67740 
   6   1  19     0.43045    38.93106    38.38614 
   6   1  20     0.41068    75.66261    73.72622 
   6   1  21     0.39257   106.65580   106.47279 
   6   1  22     0.37594    40.57181    41.35745 
   6   2   0     1.43017  1310.09211  1290.54447 
   6   2   1     1.41062  1058.23384  1050.15141 
   6   2   2     1.35644   170.56985   170.57597 
   6   2   3     1.27855   100.76661   101.74071 
   6   2   4     1.18906   448.07586   452.40386 
   6   2   5     1.09757   615.16621   622.39500 
   6   2   6     1.01003  1342.57136  1349.25017 
   6   2   7     0.92941   771.20554   768.64928 
   6   2   8     0.85674     0.00017     0.00017 
   6   2   9     0.79195    20.59001    20.52645 
   6   2  10     0.73447  1376.06867  1394.53804 
   6   2  11     0.68353   276.01573   279.69083 
   6   2  12     0.63832  1210.67476  1198.00349 
   6   2  13     0.59810   450.41035   442.74398 
   6   2  14     0.56219    23.95586    23.60083 
   6   2  15     0.53002     0.22025     0.21683 
   6   2  16     0.50107  1044.90597  1061.29007 
   6   2  17     0.47494   649.71910   662.64634 
   6   2  18     0.45125    14.82643    14.95513 
   6   2  19     0.42970   204.03422   200.97065 
   6   2  20     0.41002    15.83312    15.37433 
   6   2  21     0.39200   274.26362   274.01906 
   6   2  22     0.37543   562.50619   576.75312 
   6   3   0     1.38613     0.90775     0.91242 
   6   3   1     1.36831   263.64860   261.79454 
   6   3   2     1.31870   185.69611   183.37638 
   6   3   3     1.24679   107.24030   106.60386 
   6   3   4     1.16339    13.13868    12.99542 
   6   3   5     1.07728     3.47441     3.52308 
   6   3   6     0.99415     3.11422     3.10080 
   6   3   7     0.91700    10.54964    10.43110 
   6   3   8     0.84699   521.71428   516.99831 
   6   3   9     0.78423   768.92835   766.47700 
   6   3  10     0.72830   473.40701   479.71916 
   6   3  11     0.67855   796.36818   805.16028 
   6   3  12     0.63426    70.79733    70.62365 
   6   3  13     0.59475   411.77506   404.99459 
   6   3  14     0.55941    22.81124    22.45710 
   6   3  15     0.52768   471.20131   465.48989 
   6   3  16     0.49910   897.72090   910.23016 
   6   3  17     0.47326    13.89584    14.18636 
   6   3  18     0.44981   206.12287   208.52753 
   6   3  19     0.42845    41.85575    41.48612 
   6   3  20     0.40894    39.03783    38.06881 
   6   3  21     0.39105    28.20387    28.10639 
   6   3  22     0.37460   125.12297   129.43595 
   6   4   0     1.33080   174.84904   175.48144 
   6   4   1     1.31500    30.97552    30.97242 
   6   4   2     1.27078     1.49200     1.46695 
   6   4   3     1.20606   143.86523   145.75172 
   6   4   4     1.13009   239.73825   240.36685 
   6   4   5     1.05068    21.75741    21.75712 
   6   4   6     0.97313  1258.13507  1277.35789 
   6   4   7     0.90042    49.08846    48.84380 
   6   4   8     0.83387   248.85316   247.33309 
   6   4   9     0.77379   803.48200   805.20949 
   6   4  10     0.71991   748.42639   749.26474 
   6   4  11     0.67175   180.98366   180.79469 
   6   4  12     0.62869   609.55797   611.27515 
   6   4  13     0.59016     8.77417     8.74138 
   6   4  14     0.55558   205.37625   202.59294 
   6   4  15     0.52447   787.77707   794.13431 
   6   4  16     0.49638  1550.35560  1576.74195 
   6   4  17     0.47093    14.88900    15.42612 
   6   4  18     0.44781  1113.52116  1114.75452 
   6   4  19     0.42672   187.34108   185.47383 
   6   4  20     0.40744  1075.06392  1056.36299 
   6   4  21     0.38974     2.72975     2.72843 
   6   4  22     0.37345  1914.48371  2019.90412 
   6   5   0     1.26852   142.81630   141.49129 
   6   5   1     1.25481    33.49943    33.58624 
   6   5   2     1.21622    82.49351    82.90332 
   6   5   3     1.15913   511.80726   510.68548 
   6   5   4     1.09120    35.96286    36.01436 
   6   5   5     1.01921   381.76960   385.10839 
   6   5   6     0.94797   736.06407   741.91741 
   6   5   7     0.88038     0.53480     0.53733 
   6   5   8     0.81788   575.85604   574.96794 
   6   5   9     0.76095    82.85101    83.31691 
   6   5  10     0.70954     1.08048     1.09480 
   6   5  11     0.66330   608.40110   615.63919 
   6   5  12     0.62175    24.40345    24.20894 
   6   5  13     0.58440   725.96112   712.88221 
   6   5  14     0.55077     0.28965     0.28801 
   6   5  15     0.52042    68.93022    68.91022 
   6   5  16     0.49294   199.80448   205.00202 
   6   5  17     0.46800    14.86763    15.17701 
   6   5  18     0.44528   314.19367   314.67529 
   6   5  19     0.42453    27.42693    26.92123 
   6   5  20     0.40553    97.28608    95.44336 
   6   5  21     0.38807   220.77719   221.05329 
   6   5  22     0.37198     1.04682     1.13479 
   6   6   0     1.20309  2352.79401  2378.61919 
   6   6   1     1.19138  1173.01104  1165.38650 
   6   6   2     1.15820  1150.34638  1155.00783 
   6   6   3     1.10857    87.50212    88.60356 
   6   6   4     1.04872  1083.87071  1098.50673 
   6   6   5     0.98433     0.00203     0.00204 
   6   6   6     0.91971  1373.09521  1370.39378 
   6   6   7     0.85760  1702.72175  1697.31218 
   6   6   8     0.79952     0.18617     0.18458 
   6   6   9     0.74610    75.12472    75.10722 
   6   6  10     0.69746   828.59025   842.27227 
   6   6  11     0.65340   376.21653   375.62337 
   6   6  12     0.61357   736.29233   726.22511 
   6   6  13     0.57760   376.24138   370.47395 
   6   6  14     0.54506    10.31075    10.21113 
   6   6  15     0.51559     1.92102     1.95447 
   6   6  16     0.48883   718.26338   732.73572 
   6   6  17     0.46448   437.11513   446.12087 
   6   6  18     0.44225    13.82716    13.86112 
   6   6  19     0.42190   172.97434   168.96141 
   6   6  20     0.40323     6.39131     6.27880 
   6   6  21     0.38605   223.17286   222.12777 
   6   7   0     1.13744     3.11619     3.07910 
   6   7   1     1.12753   647.83270   648.54936 
   6   7   2     1.09928   821.45341   823.37737 
   6   7   3     1.05658   415.68968   415.87959 
   6   7   4     1.00438   228.95783   226.21056 
   6   7   5     0.94739   214.16465   215.94132 
   6   7   6     0.88937   347.64426   349.44047 
   6   7   7     0.83284   535.01265   535.20559 
   6   7   8     0.77934  2413.74672  2418.95224 
   6   7   9     0.72963   436.00183   445.35445 
   6   7  10     0.68394     4.23426     4.30479 
   6   7  11     0.64224   448.68457   446.15464 
   6   7  12     0.60431    29.87358    29.74190 
   6   7  13     0.56985   197.05873   194.69689 
   6   7  14     0.53854   305.06156   303.00998 
   6   7  15     0.51006   694.16750   697.08795 
   6   7  16     0.48411   763.97599   783.86951 
   6   7  17     0.46042    32.87543    33.00659 
   6   7  18     0.43874    87.33803    87.28615 
   6   7  19     0.41886    39.24781    38.29107 
   6   7  20     0.40057    12.91600    12.70320 
   6   7  21     0.38371     0.75832     0.76388 
   6   8   0     1.07359     0.99154     0.99397 
   6   8   1     1.06524    61.44177    62.46468 
   6   8   2     1.04133   128.18360   128.36492 
   6   8   3     1.00481   211.97715   209.14789 
   6   8   4     0.95960    25.83008    26.04601 
   6   8   5     0.90954    92.36832    91.19339 
   6   8   6     0.85783   701.03192   698.61053 
   6   8   7     0.80677   177.34855   177.34514 
   6   8   8     0.75786   291.55696   291.58055 
   6   8   9     0.71191   742.79301   753.67115 
   6   8  10     0.66928   713.97432   715.80723 
   6   8  11     0.63006   216.33230   216.28509 
   6   8  12     0.59413   646.87823   634.36803 
   6   8  13     0.56129    29.27705    28.65473 
   6   8  14     0.53129   343.68691   338.69962 
   6   8  15     0.50389   533.29876   535.47121 
   6   8  16     0.47883  1394.01244  1418.65770 
   6   8  17     0.45587    18.47030    18.76365 
   6   8  18     0.43480  1173.90472  1172.81550 
   6   8  19     0.41542   147.95823   144.80715 
   6   8  20     0.39756  1135.59368  1111.82363 
   6   8  21     0.38107     0.87635     0.88408 
   6   9   0     1.01279   552.87610   549.28505 
   6   9   1     1.00577     0.25336     0.24975 
   6   9   2     0.98557   187.80753   189.21677 
   6   9   3     0.95444   688.45806   685.04160 
   6   9   4     0.91544   188.30298   186.28243 
   6   9   5     0.87167   655.61690   652.18296 
   6   9   6     0.82584  1190.24158  1182.44944 
   6   9   7     0.78000    12.78130    12.77275 
   6   9   8     0.73553   299.23717   300.94185 
   6   9   9     0.69331     2.45691     2.46387 
   6   9  10     0.65376    64.58446    64.58862 
   6   9  11     0.61706   512.98592   514.00749 
   6   9  12     0.58319    52.93428    52.69091 
   6   9  13     0.55203   843.80428   839.32343 
   6   9  14     0.52343    27.94585    28.08023 
   6   9  15     0.49716     5.82698     5.88723 
   6   9  16     0.47304    35.63809    36.41016 
   6   9  17     0.45087    50.83428    51.41593 
   6   9  18     0.43045   325.33573   320.78356 
   6   9  19     0.41163    21.83983    21.41632 
   6   9  20     0.39423   124.75559   124.40235 
   6   9  21     0.37813   344.80193   349.42131 
   6  10   0     0.95571  2027.82030  2018.60069 
   6  10   1     0.94981   398.19907   399.01190 
   6  10   2     0.93274  1642.57020  1633.09022 
   6  10   3     0.90623     2.44248     2.42930 
   6  10   4     0.87264  1403.25120  1397.44493 
   6  10   5     0.83448   103.57877   102.65518 
   6  10   6     0.79401  1423.19701  1413.66607 
   6  10   7     0.75301   429.53246   433.79119 
   6  10   8     0.71277   173.50205   175.75076 
   6  10   9     0.67415    31.04462    31.47346 
   6  10  10     0.63762   972.89416   962.11942 
   6  10  11     0.60343   221.64087   220.57055 
   6  10  12     0.57165   859.11683   851.93934 
   6  10  13     0.54222   268.09964   264.52849 
   6  10  14     0.51503   126.25274   128.21405 
   6  10  15     0.48996    37.82837    38.65155 
   6  10  16     0.46682   537.57598   549.70811 
   6  10  17     0.44547   237.75451   237.79003 
   6  10  18     0.42575    36.27714    35.66101 
   6  10  19     0.40751   110.52929   108.61886 
   6  10  20     0.39061     0.53074     0.52896 
   6  10  21     0.37493   148.04153   152.61426 
   6  11   0     0.90263     4.17911     4.20334 
   6  11   1     0.89766   596.79046   596.17500 
   6  11   2     0.88321   925.04335   918.57679 
   6  11   3     0.86060   111.86409   111.36617 
   6  11   4     0.83168   103.03202   102.82367 
   6  11   5     0.79845     6.75695     6.70212 
   6  11   6     0.76278     0.85089     0.86008 
   6  11   7     0.72621   277.34018   278.69199 
   6  11   8     0.68992   970.70150   985.39151 
   6  11   9     0.65472   842.28149   839.39323 
   6  11  10     0.62111   280.06569   278.59151 
   6  11  11     0.58938   541.30080   538.07186 
   6  11  12     0.55965    50.55143    49.81426 
   6  11  13     0.53195   148.93494   147.42134 
   6  11  14     0.50621   127.03395   128.06981 
   6  11  15     0.48234   828.72442   855.46504 
   6  11  16     0.46022   954.09586   957.78401 
   6  11  17     0.43973    52.20628    52.18427 
   6  11  18     0.42072    73.68710    71.58869 
   6  11  19     0.40309    44.22048    43.37296 
   6  11  20     0.38672     9.62535     9.64848 
   6  12   0     0.85357    28.77920    28.82859 
   6  12   1     0.84935     6.63768     6.55917 
   6  12   2     0.83708    15.88954    15.83132 
   6  12   3     0.81776    27.32144    27.28431 
   6  12   4     0.79282   123.76050   123.05681 
   6  12   5     0.76388   146.61062   147.55109 
   6  12   6     0.73247   405.92254   412.72381 
   6  12   7     0.69992     2.51669     2.56935 
   6  12   8     0.66726   219.74604   220.66387 
   6  12   9     0.63525   108.43027   108.45429 
   6  12  10     0.60441   260.67029   259.63789 
   6  12  11     0.57506   109.31789   107.27544 
   6  12  12     0.54735   280.47666   276.95625 
   6  12  13     0.52135    71.45245    71.23545 
   6  12  14     0.49705   313.77417   317.19390 
   6  12  15     0.47440   310.99537   316.41875 
   6  12  16     0.45331   920.93766   932.13537 
   6  12  17     0.43368    47.07427    46.41236 
   6  12  18     0.41542  1146.98746  1122.56038 
   6  12  19     0.39842    88.24165    86.21434 
   6  12  20     0.38259  1197.66975  1207.30314 
   6  13   0     0.80836   383.01109   384.15578 
   6  13   1     0.80478    63.82094    63.58248 
   6  13   2     0.79432     0.02468     0.02451 
   6  13   3     0.77775   216.42823   217.19375 
   6  13   4     0.75621     0.02561     0.02561 
   6  13   5     0.73097   156.62853   159.67404 
   6  13   6     0.70331   252.23370   256.34360 
   6  13   7     0.67434   402.72956   408.54329 
   6  13   8     0.64498   109.87099   109.65504 
   6  13   9     0.61594    48.58715    48.03224 
   6  13  10     0.58771    39.57588    39.09298 
   6  13  11     0.56062   665.84917   655.60206 
   6  13  12     0.53485    42.40739    42.37869 
   6  13  13     0.51052   965.92835   969.90018 
   6  13  14     0.48764   355.02091   359.94260 
   6  13  15     0.46619     2.64894     2.71342 
   6  13  16     0.44613    35.82682    35.68465 
   6  13  17     0.42739    66.48895    66.31400 
   6  13  18     0.40988   417.32876   405.19138 
   6  13  19     0.39353    25.06802    24.96432 
   6  13  20     0.37824   179.93129   182.25017 
   6  14   0     0.76680   546.42282   557.01436 
   6  14   1     0.76374    40.34107    40.58240 
   6  14   2     0.75478   660.27199   663.95766 
   6  14   3     0.74052    51.38049    51.69831 
   6  14   4     0.72185   637.72650   639.30647 
   6  14   5     0.69980   202.71495   206.74511 
   6  14   6     0.67542   728.93763   740.32660 
   6  14   7     0.64964     6.28557     6.32184 
   6  14   8     0.62327   493.50641   488.90694 
   6  14   9     0.59695    20.03064    19.53872 
   6  14  10     0.57114   987.16069   972.29149 
   6  14  11     0.54618    99.06524    98.32081 
   6  14  12     0.52227   959.28471   953.34718 
   6  14  13     0.49954   148.03810   150.02079 
   6  14  14     0.47805   425.50149   434.37975 
   6  14  15     0.45779   135.96977   136.65999 
   6  14  16     0.43875   354.47447   354.26670 
   6  14  17     0.42089    89.02035    86.51291 
   6  14  18     0.40413    76.72633    75.87143 
   6  14  19     0.38843    50.34690    50.30504 
   6  14  20     0.37372    21.95467    23.03422 
   6  15   0     0.72859   109.66547   111.30086 
   6  15   1     0.72597   446.67422   449.00357 
   6  15   2     0.71826   177.61624   175.47601 
   6  15   3     0.70594     6.82839     6.92435 
   6  15   4     0.68971     5.55174     5.63343 
   6  15   5     0.67040    42.65741    42.59381 
   6  15   6     0.64887   151.19625   151.58752 
   6  15   7     0.62591    84.29704    83.60090 
   6  15   8     0.60223   331.70165   330.07369 
   6  15   9     0.57838  1117.73785  1103.76694 
   6  15  10     0.55482   472.18829   464.85084 
   6  15  11     0.53185   600.01739   593.44029 
   6  15  12     0.50970   192.29026   193.42207 
   6  15  13     0.48851   131.86346   134.26989 
   6  15  14     0.46835    22.06879    22.62474 
   6  15  15     0.44926   814.57226   820.10028 
   6  15  16     0.43122  1015.19132   999.65750 
   6  15  17     0.41422    51.48067    50.38561 
   6  15  18     0.39823    92.14805    89.98539 
   6  15  19     0.38318    46.15772    46.53335 
   6  16   0     0.69347   177.82712   178.31235 
   6  16   1     0.69120    57.87970    58.59036 
   6  16   2     0.68454   575.53531   586.66787 
   6  16   3     0.67385     1.45233     1.46957 
   6  16   4     0.65969   588.12023   593.98224 
   6  16   5     0.64274    30.06749    29.93380 
   6  16   6     0.62369   531.16245   525.75658 
   6  16   7     0.60322    64.94306    64.71039 
   6  16   8     0.58193   600.40444   593.80520 
   6  16   9     0.56034    49.27621    48.57816 
   6  16  10     0.53883   248.59164   246.75157 
   6  16  11     0.51772   137.21571   139.13171 
   6  16  12     0.49722   256.30864   258.90014 
   6  16  13     0.47749   148.87472   152.81008 
   6  16  14     0.45861   520.12504   521.74515 
   6  16  15     0.44064   110.90103   110.80089 
   6  16  16     0.42358   651.82239   638.70858 
   6  16  17     0.40744    87.66768    86.14413 
   6  16  18     0.39219  1197.48902  1196.48270 
   6  16  19     0.37779    43.04193    43.64344 
   6  17   0     0.66115    70.02402    70.66816 
   6  17   1     0.65918    70.27299    71.21127 
   6  17   2     0.65340   166.25250   165.98898 
   6  17   3     0.64408   244.69266   245.09266 
   6  17   4     0.63168    18.27175    18.29237 
   6  17   5     0.61675   218.44619   218.25038 
   6  17   6     0.59986   257.25547   254.03428 
   6  17   7     0.58158   326.92613   323.22454 
   6  17   8     0.56243    59.92886    59.17941 
   6  17   9     0.54287    17.18288    16.97480 
   6  17  10     0.52324     6.41709     6.44142 
   6  17  11     0.50385   541.91726   544.10396 
   6  17  12     0.48490     4.44207     4.55013 
   6  17  13     0.46654   883.37254   903.87922 
   6  17  14     0.44889   340.34623   341.97969 
   6  17  15     0.43199     5.58067     5.47827 
   6  17  16     0.41588    11.88196    11.63639 
   6  17  17     0.40057    71.57238    70.39428 
   6  17  18     0.38605   375.81512   374.05450 
   6  17  19     0.37230    22.79432    24.58503 
   6  18   0     0.63136   223.53247   223.52546 
   6  18   1     0.62965     2.83254     2.83241 
   6  18   2     0.62460   665.04901   657.77475 
   6  18   3     0.61645    58.49336    58.20589 
   6  18   4     0.60556   402.66203   401.82732 
   6  18   5     0.59236    43.41979    43.27373 
   6  18   6     0.57735   205.77232   202.53566 
   6  18   7     0.56100    50.79022    49.83197 
   6  18   8     0.54376   495.84482   491.11131 
   6  18   9     0.52601   301.31950   299.94391 
   6  18  10     0.50810   439.47395   445.13904 
   6  18  11     0.49029   139.26302   142.22527 
   6  18  12     0.47277   533.57011   545.89505 
   6  18  13     0.45571    88.23076    89.61838 
   6  18  14     0.43922   538.61545   538.49559 
   6  18  15     0.42335   264.20501   258.60218 
   6  18  16     0.40816   125.18690   122.80407 
   6  18  17     0.39366    10.63880    10.59459 
   6  18  18     0.37985    98.62125    99.35956 
   6  19   0     0.60388   137.41935   136.57692 
   6  19   1     0.60238   442.19360   440.37785 
   6  19   2     0.59796    86.88197    85.27482 
   6  19   3     0.59079   100.69953   100.37860 
   6  19   4     0.58118     8.76135     8.69197 
   6  19   5     0.56949    14.58632    14.39721 
   6  19   6     0.55611     2.16643     2.13435 
   6  19   7     0.54146   238.24245   235.35669 
   6  19   8     0.52590   686.73276   684.14504 
   6  19   9     0.50980   615.05113   618.29758 
   6  19  10     0.49344    24.21801    24.95444 
   6  19  11     0.47708   430.34643   441.87639 
   6  19  12     0.46090    11.55829    11.59590 
   6  19  13     0.44505   129.53691   129.76792 
   6  19  14     0.42965    60.08524    59.18921 
   6  19  15     0.41476   725.37949   710.32277 
   6  19  16     0.40044   582.53816   572.72082 
   6  19  17     0.38672    17.61845    17.66150 
   6  19  18     0.37361    63.89410    67.19630 
   6  20   0     0.57848    11.44784    11.30792 
   6  20   1     0.57716   174.38005   171.74229 
   6  20   2     0.57326   425.58554   419.47429 
   6  20   3     0.56694    17.98016    17.77710 
   6  20   4     0.55843   451.39324   441.89915 
   6  20   5     0.54803    10.60444    10.47817 
   6  20   6     0.53608   343.58681   339.85017 
   6  20   7     0.52292   433.75481   434.35694 
   6  20   8     0.50887  1070.20930  1081.35912 
   6  20   9     0.49424    57.47910    59.40865 
   6  20  10     0.47929   328.85039   334.00043 
   6  20  11     0.46425   238.51387   242.96432 
   6  20  12     0.44930   352.14794   354.64438 
   6  20  13     0.43458   278.02384   277.29570 
   6  20  14     0.42021   916.04926   891.34927 
   6  20  15     0.40625    18.53675    18.11309 
   6  20  16     0.39277   508.38622   507.19733 
   6  20  17     0.37979   130.21283   131.15267 
   6  21   0     0.55495   129.57169   127.66458 
   6  21   1     0.55378    15.00779    14.76349 
   6  21   2     0.55034     8.92241     8.84173 
   6  21   3     0.54474   442.87261   439.11231 
   6  21   4     0.53718    36.01208    35.49389 
   6  21   5     0.52790   495.79585   489.31687 
   6  21   6     0.51719   500.46586   508.82137 
   6  21   7     0.50534    48.57834    48.82028 
   6  21   8     0.49263     9.32953     9.53977 
   6  21   9     0.47932     0.53960     0.54794 
   6  21  10     0.46565   149.28060   153.32049 
   6  21  11     0.45182   336.91870   340.55940 
   6  21  12     0.43800    29.10750    28.98870 
   6  21  13     0.42434   680.99691   668.31282 
   6  21  14     0.41092   127.62381   124.60905 
   6  21  15     0.39784     0.00000     0.00000 
   6  21  16     0.38515     0.08734     0.08683 
   6  21  17     0.37290    62.97712    67.15793 
   6  22   0     0.53311   335.02128   333.16452 
   6  22   1     0.53208    41.76551    41.38883 
   6  22   2     0.52903  1558.62143  1539.34654 
   6  22   3     0.52405    43.39414    43.69518 
   6  22   4     0.51730   808.29856   821.26216 
   6  22   5     0.50900    62.64135    63.25401 
   6  22   6     0.49939   218.70637   221.69068 
   6  22   7     0.48869     0.83794     0.85421 
   6  22   8     0.47716   905.71664   930.02244 
   6  22   9     0.46504   410.36806   421.43877 
   6  22  10     0.45252   326.15019   331.95568 
   6  22  11     0.43980   117.00654   116.93240 
   6  22  12     0.42703   394.31886   392.20154 
   6  22  13     0.41433    46.73376    45.75276 
   6  22  14     0.40182   714.67548   697.53570 
   6  22  15     0.38956   395.77807   395.70356 
   6  22  16     0.37763    35.60381    36.08945 
   6  23   0     0.51282     0.14168     0.14254 
   6  23   1     0.51190   285.80049   286.50833 
   6  23   2     0.50918   257.03997   259.35057 
   6  23   3     0.50473   157.05232   158.08327 
   6  23   4     0.49870   112.36686   113.87287 
   6  23   5     0.49125    72.62183    73.93423 
   6  23   6     0.48259    24.55718    25.38180 
   6  23   7     0.47291   206.06268   210.65436 
   6  23   8     0.46245   461.95742   467.57184 
   6  23   9     0.45138   306.14864   308.73511 
   6  23  10     0.43991     0.29531     0.29500 
   6  23  11     0.42820   321.72772   319.49664 
   6  23  12     0.41638     0.49901     0.48859 
   6  23  13     0.40459   148.25658   146.67076 
   6  23  14     0.39291    29.44654    29.36449 
   6  23  15     0.38143   516.38735   521.50469 
   6  24   0     0.49391     9.36728     9.67463 
   6  24   1     0.49309   138.56521   142.39536 
   6  24   2     0.49066   312.27952   318.66986 
   6  24   3     0.48668    36.11372    36.80847 
   6  24   4     0.48126   222.88379   228.39270 
   6  24   5     0.47456    66.59894    67.77428 
   6  24   6     0.46673    56.24841    57.52982 
   6  24   7     0.45797   204.25938   205.11504 
   6  24   8     0.44844   850.01298   851.23456 
   6  24   9     0.43833     6.15416     6.14383 
   6  24  10     0.42780   123.32865   122.84135 
   6  24  11     0.41701   158.59429   154.67742 
   6  24  12     0.40607   198.17152   193.67336 
   6  24  13     0.39511   316.50492   314.47159 
   6  24  14     0.38421   993.31057   996.12434 
   6  24  15     0.37346     0.17887     0.18868 
   6  25   0     0.47627   136.12674   139.69374 
   6  25   1     0.47554     1.52152     1.55739 
   6  25   2     0.47335    23.97938    24.47447 
   6  25   3     0.46977   246.86330   256.82757 
   6  25   4     0.46490    66.59816    68.31134 
   6  25   5     0.45885   267.37600   268.14946 
   6  25   6     0.45176   231.19095   233.56434 
   6  25   7     0.44380    16.18784    16.21394 
   6  25   8     0.43511     4.35133     4.34521 
   6  25   9     0.42586     4.21144     4.13953 
   6  25  10     0.41619    37.06355    36.30854 
   6  25  11     0.40623   233.69317   228.34944 
   6  25  12     0.39610     1.89153     1.86864 
   6  25  13     0.38590   422.40394   419.95403 
   6  25  14     0.37573    89.84936    91.82131 
   6  26   0     0.45978   151.21613   151.64471 
   6  26   1     0.45912   172.52861   172.93371 
   6  26   2     0.45715  1454.47243  1471.11601 
   6  26   3     0.45393     0.02069     0.02091 
   6  26   4     0.44952   840.04953   847.54618 
   6  26   5     0.44405     0.34080     0.34098 
   6  26   6     0.43762   257.94741   256.12157 
   6  26   7     0.43037   182.43874   179.84798 
   6  26   8     0.42243  1536.31553  1506.01960 
   6  26   9     0.41395   220.85908   215.89552 
   6  26  10     0.40505   483.49926   476.81874 
   6  26  11     0.39585    34.78755    34.38037 
   6  26  12     0.38646   503.99601   503.81119 
   6  26  13     0.37697     8.50728     8.60736 
   6  27   0     0.44434     1.56773     1.56778 
   6  27   1     0.44374    86.36577    86.52866 
   6  27   2     0.44196    68.38250    68.58642 
   6  27   3     0.43905    78.91854    78.88781 
   6  27   4     0.43506    40.38021    40.33641 
   6  27   5     0.43009    32.73236    32.24664 
   6  27   6     0.42424    14.38545    14.11767 
   6  27   7     0.41762    27.20198    26.47585 
   6  27   8     0.41036    90.09650    87.59237 
   6  27   9     0.40257   186.35298   181.66243 
   6  27  10     0.39437     0.09016     0.08994 
   6  27  11     0.38586   281.96408   280.27574 
   6  27  12     0.37715    10.78948    10.91915 
   6  28   0     0.42985     5.52288     5.43958 
   6  28   1     0.42931   133.55493   131.72746 
   6  28   2     0.42770   708.08702   705.74192 
   6  28   3     0.42506    70.43135    69.26348 
   6  28   4     0.42143   366.67909   357.00668 
   6  28   5     0.41691   123.28861   120.31564 
   6  28   6     0.41158    32.69936    32.06466 
   6  28   7     0.40553   133.82506   131.29145 
   6  28   8     0.39887   763.09900   748.04751 
   6  28   9     0.39170    59.30523    59.20114 
   6  28  10     0.38414    46.32167    46.49294 
   6  28  11     0.37626    88.29193    89.65026 
   6  29   0     0.41624     0.89072     0.87247 
   6  29   1     0.41575     6.54272     6.40571 
   6  29   2     0.41429     0.39629     0.38793 
   6  29   3     0.41188   112.89448   110.66805 
   6  29   4     0.40858     7.21618     7.06241 
   6  29   5     0.40446   103.57053   102.48670 
   6  29   6     0.39958    37.24908    36.64257 
   6  29   7     0.39404     0.14009     0.13961 
   6  29   8     0.38792    19.69995    19.74588 
   6  29   9     0.38132    37.42286    37.78422 
   6  29  10     0.37433     3.54751     3.68228 
   6  30   0     0.40343    26.02902    25.61989 
   6  30   1     0.40298   162.98812   159.63410 
   6  30   2     0.40165   894.83633   875.07496 
   6  30   3     0.39946     5.54609     5.45581 
   6  30   4     0.39645   517.75935   511.26362 
   6  30   5     0.39267    16.43178    16.39820 
   6  30   6     0.38821   138.65562   138.69416 
   6  30   7     0.38312   147.09104   148.28021 
   6  30   8     0.37749  1445.06608  1464.04628 
   6  31   0     0.39135     0.36972     0.36865 
   6  31   1     0.39095    13.33673    13.28927 
   6  31   2     0.38973     8.85197     8.84782 
   6  31   3     0.38772   104.21017   104.59367 
   6  31   4     0.38497     2.15309     2.14299 
   6  31   5     0.38151    75.14442    75.89750 
   6  31   6     0.37741    37.91611    38.40216 
   6  31   7     0.37273     0.16706     0.17872 
   6  32   0     0.37996    32.49385    32.75375 
   6  32   1     0.37958   126.90285   127.71086 
   6  32   2     0.37847   891.18590   901.56671 
   6  32   3     0.37663    23.84745    24.14392 
   6  32   4     0.37410   498.98104   519.71720 
   7   0   1     1.24540   512.96436   510.24663 
   7   0   2     1.20764     0.01544     0.01552 
   7   0   3     1.15169     0.12349     0.12212 
   7   0   4     1.08500   117.37624   118.50518 
   7   0   5     1.01415   256.34288   252.00207 
   7   0   6     0.94389     9.75752     9.75105 
   7   0   7     0.87711     0.80288     0.80193 
   7   0   8     0.81525   102.90333   101.46549 
   7   0   9     0.75884     6.57793     6.57325 
   7   0  10     0.70783   457.63419   462.77491 
   7   0  11     0.66190   299.64236   302.67034 
   7   0  12     0.62060   107.76229   107.24513 
   7   0  13     0.58345    16.05214    15.93647 
   7   0  14     0.54997    17.00031    16.81111 
   7   0  15     0.51974   264.31327   262.03615 
   7   0  16     0.49236   110.55584   112.78757 
   7   0  17     0.46750   295.99662   301.88465 
   7   0  18     0.44486   316.99416   317.40397 
   7   0  19     0.42417     7.00570     6.87537 
   7   0  20     0.40521     7.75375     7.63410 
   7   0  21     0.38778   258.71198   259.56784 
   7   1   1     1.23935   106.23483   105.54182 
   7   1   2     1.20212    39.12316    39.49483 
   7   1   3     1.14690    30.72300    30.82339 
   7   1   4     1.08099   920.31128   930.82851 
   7   1   5     1.01087   404.65224   406.36056 
   7   1   6     0.94125   639.52895   640.72016 
   7   1   7     0.87498    63.60616    63.71914 
   7   1   8     0.81355  1203.47228  1194.52804 
   7   1   9     0.75746   642.31461   642.61165 
   7   1  10     0.70671  1213.34961  1233.69343 
   7   1  11     0.66099   777.54017   784.42865 
   7   1  12     0.61985    73.97573    73.61785 
   7   1  13     0.58282     4.79765     4.78125 
   7   1  14     0.54945    62.43488    61.61006 
   7   1  15     0.51930     4.99332     4.95389 
   7   1  16     0.49199    10.68878    10.88296 
   7   1  17     0.46718    29.05051    29.67147 
   7   1  18     0.44458   149.10172   149.15646 
   7   1  19     0.42393     2.82094     2.76801 
   7   1  20     0.40500     0.37414     0.36915 
   7   1  21     0.38760     3.41582     3.43077 
   7   2   1     1.22171    73.29851    73.70484 
   7   2   2     1.18601  1195.55323  1224.20351 
   7   2   3     1.13288   332.50925   331.46573 
   7   2   4     1.06922   799.89102   801.51835 
   7   2   5     1.00123  1133.11767  1140.28755 
   7   2   6     0.93345   522.68456   522.19530 
   7   2   7     0.86871  1541.01719  1549.29254 
   7   2   8     0.80850   578.79153   580.40396 
   7   2   9     0.75338  1662.21637  1679.05747 
   7   2  10     0.70339    51.25847    52.09112 
   7   2  11     0.65827  1451.23880  1468.60180 
   7   2  12     0.61760   614.06215   617.06402 
   7   2  13     0.58095   642.63416   639.10809 
   7   2  14     0.54788   106.61494   105.32040 
   7   2  15     0.51797   623.25529   630.68994 
   7   2  16     0.49086     1.78509     1.82028 
   7   2  17     0.46622   785.43721   804.46635 
   7   2  18     0.44375   111.42031   111.62697 
   7   2  19     0.42321   603.25441   590.24917 
   7   2  20     0.40437   684.38957   677.24766 
   7   2  21     0.38705   987.59589   992.21625 
   7   3   1     1.19391   292.59139   288.70338 
   7   3   2     1.16053     4.79384     4.74404 
   7   3   3     1.11061   206.83821   207.14348 
   7   3   4     1.05044   221.03052   221.59221 
   7   3   5     0.98576   290.46466   292.77606 
   7   3   6     0.92087   282.73215   281.91323 
   7   3   7     0.85855    10.57123    10.51952 
   7   3   8     0.80029   723.82371   718.38054 
   7   3   9     0.74672   154.83796   154.96913 
   7   3  10     0.69797   765.99694   778.80895 
   7   3  11     0.65381   967.59872   967.78458 
   7   3  12     0.61392   136.20622   134.55623 
   7   3  13     0.57788   120.74674   119.03843 
   7   3  14     0.54530    40.98376    40.56618 
   7   3  15     0.51580     0.75096     0.76439 
   7   3  16     0.48901     8.52833     8.70591 
   7   3  17     0.46463   106.35434   108.73419 
   7   3  18     0.44238    74.78297    74.96892 
   7   3  19     0.42202    88.06074    86.10619 
   7   3  20     0.40333     6.03341     5.93304 
   7   3  21     0.38614     4.99560     4.97624 
   7   4   1     1.15801  5149.71358  5177.10951 
   7   4   2     1.12747     8.14739     8.15456 
   7   4   3     1.08153  1142.60648  1156.13148 
   7   4   4     1.02574   310.92409   312.15711 
   7   4   5     0.96526  1618.69840  1639.01011 
   7   4   6     0.90409     0.47797     0.48287 
   7   4   7     0.84490    36.50396    36.10217 
   7   4   8     0.78920   231.30827   230.22931 
   7   4   9     0.73769    11.60218    11.45984 
   7   4  10     0.69057   793.45276   806.15043 
   7   4  11     0.64773   416.45774   414.47135 
   7   4  12     0.60887   187.55237   184.23373 
   7   4  13     0.57367    21.74903    21.47705 
   7   4  14     0.54176    25.04018    24.72775 
   7   4  15     0.51279   498.10758   501.11417 
   7   4  16     0.48644   191.84442   196.10653 
   7   4  17     0.46243   604.24636   611.61105 
   7   4  18     0.44048   520.62378   519.81673 
   7   4  19     0.42036    35.35224    34.36632 
   7   4  20     0.40189    14.22469    13.87453 
   7   4  21     0.38487   522.10090   519.98232 
   7   5   1     1.11627  1514.46442  1512.94466 
   7   5   2     1.08884   128.08127   128.13736 
   7   5   3     1.04730   122.23453   123.00768 
   7   5   4     0.99639    78.98704    78.25475 
   7   5   5     0.94068   163.97833   164.12441 
   7   5   6     0.88381     0.96476     0.95553 
   7   5   7     0.82827   102.19826   101.84664 
   7   5   8     0.77560   278.29265   273.93919 
   7   5   9     0.72655   192.88816   193.85671 
   7   5  10     0.68141   801.44885   818.51629 
   7   5  11     0.64014    55.78721    55.35602 
   7   5  12     0.60256    19.21926    19.15456 
   7   5  13     0.56838     1.05562     1.04077 
   7   5  14     0.53730   134.86438   133.04533 
   7   5  15     0.50900     1.00862     1.01849 
   7   5  16     0.48321     0.02027     0.02089 
   7   5  17     0.45964     5.24743     5.26018 
   7   5  18     0.43807   141.90534   141.40517 
   7   5  19     0.41827    24.66977    24.01421 
   7   5  20     0.40006    21.20797    20.84268 
   7   5  21     0.38326    39.98728    40.31429 
   7   6   1     1.07091  1870.15681  1861.19108 
   7   6   2     1.04662   967.36569   973.36089 
   7   6   3     1.00956   521.29560   523.19316 
   7   6   4     0.96373   439.16360   442.78425 
   7   6   5     0.91305    48.87429    49.16296 
   7   6   6     0.86077   440.04568   437.99272 
   7   6   7     0.80923   794.33849   794.19776 
   7   6   8     0.75989   471.19154   472.34546 
   7   6   9     0.71359  1528.35629  1543.31442 
   7   6  10     0.67068    29.97249    29.94027 
   7   6  11     0.63123  1521.02886  1520.36180 
   7   6  12     0.59510   389.94817   384.88633 
   7   6  13     0.56211   756.34792   744.48584 
   7   6  14     0.53199    78.59822    77.82842 
   7   6  15     0.50449   607.05030   610.56345 
   7   6  16     0.47934     0.91854     0.93262 
   7   6  17     0.45631   680.14846   691.45869 
   7   6  18     0.43518    71.71335    71.58014 
   7   6  19     0.41575   556.60611   544.95450 
   7   6  20     0.39785   463.10556   452.50263 
   7   6  21     0.38132   862.87270   871.21020 
   7   7   1     1.02382  1337.36006  1327.72321 
   7   7   2     1.00253    36.25406    36.28048 
   7   7   3     0.96982  1927.74217  1941.82142 
   7   7   4     0.92898    64.91543    64.67496 
   7   7   5     0.88334     8.44778     8.38270 
   7   7   6     0.83575     0.72825     0.72333 
   7   7   7     0.78832   351.98956   349.70322 
   7   7   8     0.74250   156.47714   157.10778 
   7   7   9     0.69913    14.79217    15.00667 
   7   7  10     0.65864   256.23879   259.94284 
   7   7  11     0.62115   844.87075   840.36907 
   7   7  12     0.58664   171.26600   167.30832 
   7   7  13     0.55496   350.84073   345.71352 
   7   7  14     0.52592    18.73542    18.66239 
   7   7  15     0.49930     2.42680     2.46020 
   7   7  16     0.47488     5.22528     5.32713 
   7   7  17     0.45246   168.08477   171.04909 
   7   7  18     0.43184    18.62151    18.27555 
   7   7  19     0.41284   256.91155   250.39453 
   7   7  20     0.39529    25.70098    25.49090 
   7   7  21     0.37907    29.75503    29.97009 
   7   8   1     0.97651  9341.93089  9242.44461 
   7   8   2     0.95799     4.34838     4.34878 
   7   8   3     0.92933  3673.04898  3660.65831 
   7   8   4     0.89321   102.40479   101.88621 
   7   8   5     0.85242  2875.26797  2858.72407 
   7   8   6     0.80941     4.75455     4.74813 
   7   8   7     0.76611   312.32263   318.12354 
   7   8   8     0.72385   122.79800   123.56228 
   7   8   9     0.68350    16.16202    16.37275 
   7   8  10     0.64552   423.90488   422.42513 
   7   8  11     0.61011   385.49756   379.72520 
   7   8  12     0.57731   110.15234   108.43323 
   7   8  13     0.54704    76.99206    76.05907 
   7   8  14     0.51917     7.85427     7.80319 
   7   8  15     0.49351   509.19469   524.87364 
   7   8  16     0.46989   104.38405   108.58177 
   7   8  17     0.44814   587.89201   587.86506 
   7   8  18     0.42807   316.04941   314.15624 
   7   8  19     0.40954    99.17511    96.32595 
   7   8  20     0.39240     2.87967     2.87610 
   7   8  21     0.37652   462.42432   468.49485 
   7   9   1     0.93009  2229.59645  2219.25788 
   7   9   2     0.91404   126.06844   125.67443 
   7   9   3     0.88905    74.89477    75.13181 
   7   9   4     0.85727   127.25451   126.86440 
   7   9   5     0.82101   477.78992   477.49633 
   7   9   6     0.78238     2.42306     2.41529 
   7   9   7     0.74307    28.80824    28.95147 
   7   9   8     0.70433   220.04580   223.18300 
   7   9   9     0.66699   367.71909   369.18202 
   7   9  10     0.63155   708.69810   709.12971 
   7   9  11     0.59828     0.06814     0.06710 
   7   9  12     0.56726     0.66432     0.65610 
   7   9  13     0.53847    47.07006    46.75247 
   7   9  14     0.51182   110.90072   111.14585 
   7   9  15     0.48719     0.84828     0.86028 
   7   9  16     0.46442     0.14344     0.14631 
   7   9  17     0.44339    63.93666    64.14259 
   7   9  18     0.42393   161.23032   158.20553 
   7   9  19     0.40591   113.86433   111.34978 
   7   9  20     0.38920    41.61308    41.59495 
   7   9  21     0.37369    87.58414    91.94528 
   7  10   1     0.88530   876.47494   869.51095 
   7  10   2     0.87143   326.83781   325.20999 
   7  10   3     0.84969   167.12255   165.44449 
   7  10   4     0.82182   336.96749   337.30775 
   7  10   5     0.78971    49.83490    49.66101 
   7  10   6     0.75515    89.05669    89.44278 
   7  10   7     0.71962   583.07365   582.45642 
   7  10   8     0.68427   188.77404   192.28200 
   7  10   9     0.64988  1057.09831  1065.08653 
   7  10  10     0.61697     7.09810     7.10759 
   7  10  11     0.58584   969.05207   947.81646 
   7  10  12     0.55662   142.01082   139.77960 
   7  10  13     0.52934   618.85054   610.89098 
   7  10  14     0.50396    37.24148    37.39557 
   7  10  15     0.48040   497.05610   505.45241 
   7  10  16     0.45853     1.09477     1.09825 
   7  10  17     0.43825   579.43772   578.19717 
   7  10  18     0.41943     9.45593     9.23758 
   7  10  19     0.40196   598.22708   583.13950 
   7  10  20     0.38571   225.86562   224.36821 
   7  11   1     0.84261   370.37096   369.97237 
   7  11   2     0.83063    61.74876    61.63431 
   7  11   3     0.81174  1113.02296  1100.56968 
   7  11   4     0.78733    31.97920    31.89326 
   7  11   5     0.75897   440.64469   440.40728 
   7  11   6     0.72814   380.82051   385.53293 
   7  11   7     0.69613     4.69844     4.73304 
   7  11   8     0.66397   500.63356   508.97013 
   7  11   9     0.63242    23.80013    23.82564 
   7  11  10     0.60197   250.20806   248.60542 
   7  11  11     0.57295  1541.65663  1519.02675 
   7  11  12     0.54553   206.75497   204.73883 
   7  11  13     0.51978   209.37826   207.63006 
   7  11  14     0.49569     1.90557     1.95069 
   7  11  15     0.47321     0.41424     0.42295 
   7  11  16     0.45227    37.46610    38.06738 
   7  11  17     0.43278   244.67464   242.41557 
   7  11  18     0.41463    13.50630    13.22659 
   7  11  19     0.39772   362.47189   354.44783 
   7  11  20     0.38197    70.57172    71.23969 
   7  12   1     0.80228  2769.32919  2772.80195 
   7  12   2     0.79192     7.79320     7.77050 
   7  12   3     0.77549  1132.26642  1114.48537 
   7  12   4     0.75413     2.81507     2.83794 
   7  12   5     0.72910   970.46852   987.80983 
   7  12   6     0.70164     0.22930     0.23386 
   7  12   7     0.67286   203.69073   204.13030 
   7  12   8     0.64369    85.45042    85.45404 
   7  12   9     0.61482    84.69216    83.79441 
   7  12  10     0.58673   167.21894   163.40206 
   7  12  11     0.55977   388.62046   383.03394 
   7  12  12     0.53412    14.84223    14.78446 
   7  12  13     0.50988   248.13399   249.32333 
   7  12  14     0.48708     0.00432     0.00439 
   7  12  15     0.46570   514.87267   528.66104 
   7  12  16     0.44570    23.25915    23.21217 
   7  12  17     0.42701   495.03986   492.27425 
   7  12  18     0.40955   129.67601   125.95000 
   7  12  19     0.39323   184.07215   183.39698 
   7  12  20     0.37798     5.22207     5.29446 
   7  13   1     0.76440   515.62424   520.83712 
   7  13   2     0.75542     0.83612     0.83887 
   7  13   3     0.74113   315.86840   318.12701 
   7  13   4     0.72241   865.61287   868.11788 
   7  13   5     0.70032    46.63876    47.76255 
   7  13   6     0.67588   285.72175   290.55048 
   7  13   7     0.65005   192.28010   193.92714 
   7  13   8     0.62363   705.87954   698.83258 
   7  13   9     0.59726  1023.27421   998.23085 
   7  13  10     0.57142   958.30202   947.53138 
   7  13  11     0.54642     2.90275     2.87782 
   7  13  12     0.52249     0.86971     0.86672 
   7  13  13     0.49973   266.72326   270.24555 
   7  13  14     0.47821    59.66642    60.82285 
   7  13  15     0.45793     2.50242     2.51317 
   7  13  16     0.43888     7.80564     7.80170 
   7  13  17     0.42100   109.52346   106.47369 
   7  13  18     0.40423   186.16674   184.16938 
   7  13  19     0.38852   211.62124   211.39126 
   7  13  20     0.37379    39.15658    41.01825 
   7  14   1     0.72897    71.50602    72.72573 
   7  14   2     0.72117   127.91429   128.32076 
   7  14   3     0.70870   422.62802   427.08415 
   7  14   4     0.69229     3.52169     3.53125 
   7  14   5     0.67277   698.13728   699.19461 
   7  14   6     0.65101    84.27716    84.65556 
   7  14   7     0.62783  1291.68734  1289.10761 
   7  14   8     0.60394   201.83709   200.62725 
   7  14   9     0.57990  1387.75729  1378.91543 
   7  14  10     0.55616    41.88483    41.25864 
   7  14  11     0.53303   877.08053   872.11037 
   7  14  12     0.51074    24.49539    24.58380 
   7  14  13     0.48942   710.48067   725.97753 
   7  14  14     0.46916     4.19099     4.35022 
   7  14  15     0.44996   474.98954   481.16561 
   7  14  16     0.43185     0.13833     0.13576 
   7  14  17     0.41478   512.17938   501.54094 
   7  14  18     0.39872    10.18880     9.97437 
   7  14  19     0.38362   687.78081   693.09601 
   7  15   1     0.69591     2.02237     2.03700 
   7  15   2     0.68911   164.17043   166.47744 
   7  15   3     0.67821   360.37126   364.61036 
   7  15   4     0.66378    94.03798    95.49433 
   7  15   5     0.64652   921.63758   916.74976 
   7  15   6     0.62714   714.70255   707.59573 
   7  15   7     0.60634    32.53394    32.47121 
   7  15   8     0.58473   695.13057   680.91251 
   7  15   9     0.56284    32.00741    31.67691 
   7  15  10     0.54105   260.61831   257.74689 
   7  15  11     0.51969  1471.37276  1458.44567 
   7  15  12     0.49897   267.60108   271.32858 
   7  15  13     0.47904   145.31705   147.80192 
   7  15  14     0.45998     8.75331     8.78325 
   7  15  15     0.44185     0.87246     0.87535 
   7  15  16     0.42466    51.02600    50.10173 
   7  15  17     0.40840   237.03934   232.27546 
   7  15  18     0.39304     7.36054     7.33717 
   7  15  19     0.37855   369.00981   373.10175 
   7  16   1     0.66511  1335.84855  1360.07931 
   7  16   2     0.65917   154.28235   156.35521 
   7  16   3     0.64961   643.27861   646.87981 
   7  16   4     0.63690    23.11598    22.91941 
   7  16   5     0.62160   188.86118   187.52573 
   7  16   6     0.60432   196.80424   195.94285 
   7  16   7     0.58564    20.92268    20.46297 
   7  16   8     0.56610   262.89877   258.96141 
   7  16   9     0.54616     8.18364     8.12238 
   7  16  10     0.52619    82.90721    82.43248 
   7  16  11     0.50648    79.50418    80.34430 
   7  16  12     0.48724    30.72117    31.15102 
   7  16  13     0.46863   248.67839   256.05832 
   7  16  14     0.45075     4.30046     4.35441 
   7  16  15     0.43365   392.45258   386.95210 
   7  16  16     0.41736     0.03342     0.03255 
   7  16  17     0.40189   389.76866   380.15669 
   7  16  18     0.38723    10.69932    10.75434 
   7  16  19     0.37335   317.76236   335.87799 
   7  17   1     0.63644   363.34473   361.33669 
   7  17   2     0.63122     9.53341     9.52919 
   7  17   3     0.62281   283.07654   280.06206 
   7  17   4     0.61158   373.83091   367.85160 
   7  17   5     0.59800   144.33803   141.73394 
   7  17   6     0.58257   104.57684   104.07570 
   7  17   7     0.56578    90.87269    89.36209 
   7  17   8     0.54811   435.51802   430.38148 
   7  17   9     0.52995   587.03141   578.13986 
   7  17  10     0.51164   739.32976   740.60517 
   7  17  11     0.49347    35.44808    36.53091 
   7  17  12     0.47562     9.79153    10.02712 
   7  17  13     0.45827   215.53657   216.28559 
   7  17  14     0.44150    71.56211    71.85326 
   7  17  15     0.42540     0.00692     0.00681 
   7  17  16     0.40999     0.88295     0.85733 
   7  17  17     0.39530   159.93372   158.62022 
   7  17  18     0.38132   109.62757   110.68678 
   7  18   1     0.60974    31.29510    30.87928 
   7  18   2     0.60515    35.82468    35.72348 
   7  18   3     0.59773   183.13415   179.30578 
   7  18   4     0.58778   226.30064   223.72869 
   7  18   5     0.57569   482.17601   473.61993 
   7  18   6     0.56188   101.87285    99.97148 
   7  18   7     0.54678  1604.52850  1586.89489 
   7  18   8     0.53078   231.77088   227.70961 
   7  18   9     0.51424  1959.28204  1975.91909 
   7  18  10     0.49746   241.93951   244.29464 
   7  18  11     0.48071  1101.35966  1123.04296 
   7  18  12     0.46417     2.36680     2.40976 
   7  18  13     0.44799  1059.18059  1059.41040 
   7  18  14     0.43229     4.75580     4.68275 
   7  18  15     0.41714   515.25860   502.16923 
   7  18  16     0.40258     2.22115     2.16540 
   7  18  17     0.38865   425.34658   424.82330 
   7  18  18     0.37534    71.74525    73.63545 
   7  19   1     0.58488   129.18284   126.43427 
   7  19   2     0.58083    18.59604    18.51576 
   7  19   3     0.57425   865.67525   854.93704 
   7  19   4     0.56542    11.42851    11.25470 
   7  19   5     0.55463   206.37248   202.91040 
   7  19   6     0.54225   166.16654   163.94121 
   7  19   7     0.52864     7.02628     6.93603 
   7  19   8     0.51413   241.44773   243.29777 
   7  19   9     0.49906     7.33355     7.43584 
   7  19  10     0.48368   108.16555   111.25162 
   7  19  11     0.46824   727.83202   744.99104 
   7  19  12     0.45291   218.59232   222.15526 
   7  19  13     0.43785   159.58364   158.70735 
   7  19  14     0.42316     2.71681     2.65831 
   7  19  15     0.40891     4.17406     4.07151 
   7  19  16     0.39517    25.87768    25.69494 
   7  19  17     0.38197   119.27636   120.40399 
   7  20   1     0.56171  3245.26399  3178.49513 
   7  20   2     0.55811   220.17072   215.63884 
   7  20   3     0.55228  2279.69313  2270.53051 
   7  20   4     0.54440    10.63949    10.55232 
   7  20   5     0.53475   468.21026   467.85893 
   7  20   6     0.52363   270.74116   272.26229 
   7  20   7     0.51134   117.34491   117.49647 
   7  20   8     0.49818   211.85375   214.24459 
   7  20   9     0.48443    28.20860    28.90161 
   7  20  10     0.47033     0.84105     0.87450 
   7  20  11     0.45609    12.32441    12.52472 
   7  20  12     0.44189   142.90061   143.35496 
   7  20  13     0.42787   292.78064   291.48713 
   7  20  14     0.41413    21.57015    21.10383 
   7  20  15     0.40075   336.12334   330.73063 
   7  20  16     0.38779    14.22453    14.27084 
   7  20  17     0.37529   345.67980   354.99102 
   7  21   1     0.54009  1076.65185  1060.58755 
   7  21   2     0.53689    28.21837    27.77139 
   7  21   3     0.53169     1.96055     1.93660 
   7  21   4     0.52465    82.63622    83.27676 
   7  21   5     0.51600   407.25384   414.77440 
   7  21   6     0.50599    12.63830    12.71574 
   7  21   7     0.49487     9.86473    10.16177 
   7  21   8     0.48292   165.81105   171.27330 
   7  21   9     0.47036   286.20867   297.56542 
   7  21  10     0.45742   369.18259   372.29019 
   7  21  11     0.44429    50.40436    50.40706 
   7  21  12     0.43113     8.98588     8.85296 
   7  21  13     0.41808   125.31911   121.95588 
   7  21  14     0.40523    42.26341    41.59902 
   7  21  15     0.39267     2.29703     2.29234 
   7  21  16     0.38046     0.02602     0.02625 
   7  22   1     0.51990   399.07074   396.23513 
   7  22   2     0.51705    33.03945    33.62246 
   7  22   3     0.51240     2.42026     2.43178 
   7  22   4     0.50609   245.94117   247.66433 
   7  22   5     0.49831    57.10207    57.77788 
   7  22   6     0.48927     3.63436     3.71262 
   7  22   7     0.47920   904.24931   918.88984 
   7  22   8     0.46832    34.91169    35.77507 
   7  22   9     0.45684  1393.75169  1413.99097 
   7  22  10     0.44496   268.37889   268.80846 
   7  22  11     0.43285   702.54371   696.20432 
   7  22  12     0.42065    97.69454    94.91072 
   7  22  13     0.40850   990.22755   969.68775 
   7  22  14     0.39649    13.69116    13.51706 
   7  22  15     0.38471   420.18478   419.01792 
   7  22  16     0.37320     5.85877     6.21193 
   7  23   1     0.50103   433.12137   439.76912 
   7  23   2     0.49847    21.72001    21.99225 
   7  23   3     0.49430   908.24903   938.63104 
   7  23   4     0.48863     0.31636     0.32238 
   7  23   5     0.48162    34.84914    35.79216 
   7  23   6     0.47344   140.18700   143.05653 
   7  23   7     0.46430     0.00344     0.00351 
   7  23   8     0.45438   162.01821   163.72416 
   7  23   9     0.44388     1.47762     1.47948 
   7  23  10     0.43295    56.32056    55.80584 
   7  23  11     0.42177   472.01929   460.53411 
   7  23  12     0.41047    77.73155    75.62156 
   7  23  13     0.39915    42.92335    42.17804 
   7  23  14     0.38793    12.62197    12.65071 
   7  23  15     0.37687     4.05883     4.10670 
   7  24   1     0.48335  2702.15034  2783.67104 
   7  24   2     0.48106   184.75778   189.01854 
   7  24   3     0.47730  2501.86960  2569.04798 
   7  24   4     0.47219   202.37079   208.01514 
   7  24   5     0.46586   565.42639   580.12205 
   7  24   6     0.45845   151.39551   151.88782 
   7  24   7     0.45013   371.31784   376.52223 
   7  24   8     0.44108    66.76861    66.91078 
   7  24   9     0.43145   218.78478   215.12165 
   7  24  10     0.42140    80.60000    78.46021 
   7  24  11     0.41106    57.50238    56.21209 
   7  24  12     0.40058   185.75372   182.69823 
   7  24  13     0.39004   521.91757   521.12375 
   7  24  14     0.37955    67.50402    67.92789 
   7  25   1     0.46678   625.57563   639.75862 
   7  25   2     0.46471     4.85050     4.96452 
   7  25   3     0.46133    11.24986    11.29441 
   7  25   4     0.45671   167.97194   170.60271 
   7  25   5     0.45097   110.68701   111.83397 
   7  25   6     0.44424   134.35221   134.36334 
   7  25   7     0.43666    51.23555    50.85906 
   7  25   8     0.42838   220.87186   219.03914 
   7  25   9     0.41954   286.15495   279.50665 
   7  25  10     0.41028   219.08330   212.90076 
   7  25  11     0.40073     1.14032     1.12200 
   7  25  12     0.39099     7.17196     7.14675 
   7  25  13     0.38118    98.53432    99.43912 
   7  26   1     0.45123    40.36561    40.71824 
   7  26   2     0.44936   101.81764   102.58098 
   7  26   3     0.44629   140.46241   139.99129 
   7  26   4     0.44211   381.77090   382.77617 
   7  26   5     0.43689    96.62050    95.92815 
   7  26   6     0.43077    32.29824    31.85988 
   7  26   7     0.42384   785.48814   770.56886 
   7  26   8     0.41626     3.07810     3.01491 
   7  26   9     0.40814  1069.83015  1049.56778 
   7  26  10     0.39960   276.82486   272.30969 
   7  26  11     0.39076   421.89781   420.39704 
   7  26  12     0.38171   243.11930   245.54583 
   7  26  13     0.37257   815.76172   875.37325 
   7  27   1     0.43660   131.57245   130.59055 
   7  27   2     0.43491    40.17251    40.14536 
   7  27   3     0.43213   181.94250   178.77556 
   7  27   4     0.42833    81.99976    81.34878 
   7  27   5     0.42358    37.24986    36.49969 
   7  27   6     0.41799   212.47269   206.75966 
   7  27   7     0.41166    43.19684    42.35964 
   7  27   8     0.40470   199.76119   197.53781 
   7  27   9     0.39722    56.90470    55.88249 
   7  27  10     0.38933    71.99753    71.98172 
   7  27  11     0.38114   253.48635   255.78378 
   7  27  12     0.37274    12.50561    13.37594 
   7  28   1     0.42284  1341.26531  1313.81937 
   7  28   2     0.42130   300.31348   292.23635 
   7  28   3     0.41877  1489.88153  1452.94280 
   7  28   4     0.41531   137.38217   134.45915 
   7  28   5     0.41097   223.14732   217.97459 
   7  28   6     0.40586   299.90621   293.35589 
   7  28   7     0.40006   233.80207   229.77514 
   7  28   8     0.39366   103.40999   102.98028 
   7  28   9     0.38677   189.97548   190.51603 
   7  28  10     0.37948   120.47670   121.21275 
   7  29   1     0.40986   117.87329   114.44561 
   7  29   2     0.40846    27.67610    27.11075 
   7  29   3     0.40615     6.06007     5.92143 
   7  29   4     0.40299   105.44434   103.28459 
   7  29   5     0.39903     0.13398     0.13153 
   7  29   6     0.39434   198.67141   198.16404 
   7  29   7     0.38901    57.55657    57.50923 
   7  29   8     0.38312   210.46750   212.17045 
   7  29   9     0.37676   149.20973   150.99024 
   7  30   1     0.39761     0.60374     0.59084 
   7  30   2     0.39633    63.11241    62.33908 
   7  30   3     0.39423   321.54822   320.63166 
   7  30   4     0.39133   646.01815   644.10855 
   7  30   5     0.38770   246.70102   247.64179 
   7  30   6     0.38340     0.81699     0.82364 
   7  30   7     0.37850  1049.08225  1061.10938 
   7  30   8     0.37306    20.23100    21.50655 
   7  31   1     0.38604    99.13751    98.66244 
   7  31   2     0.38487     5.80958     5.78628 
   7  31   3     0.38293    13.21224    13.31672 
   7  31   4     0.38028    81.44298    82.16566 
   7  31   5     0.37695     0.05998     0.06069 
   7  31   6     0.37299    83.68589    89.08708 
   7  32   1     0.37508  1268.46412  1305.53611 
   7  32   2     0.37401   306.50751   319.78223 
   7  32   3     0.37224  1310.60634  1415.04357 
   8   0   0     1.10144     1.83512     1.83207 
   8   0   1     1.09244    25.67351    25.75274 
   8   0   2     1.06669  1672.32786  1694.17173 
   8   0   3     1.02754    28.94578    28.57045 
   8   0   4     0.97933   710.98366   710.99499 
   8   0   5     0.92629    86.28513    85.47485 
   8   0   6     0.87184     1.44515     1.43746 
   8   0   7     0.81840    28.45156    28.33523 
   8   0   8     0.76747  1573.78854  1602.01196 
   8   0   9     0.71985   119.32626   119.40769 
   8   0  10     0.67587    46.79160    47.58232 
   8   0  11     0.63555   163.35414   163.35334 
   8   0  12     0.59872   193.86483   191.34973 
   8   0  13     0.56516    26.03332    25.71549 
   8   0  14     0.53457  1493.21980  1491.10070 
   8   0  15     0.50669    58.94386    59.65198 
   8   0  16     0.48122   118.59546   121.49357 
   8   0  17     0.45793    11.19875    11.24683 
   8   0  18     0.43659  1558.11899  1546.42941 
   8   0  19     0.41698   177.05279   172.70697 
   8   0  20     0.39893  1195.28509  1172.38224 
   8   0  21     0.38227     9.47645     9.55872 
   8   1   0     1.09725    19.14848    19.40316 
   8   1   1     1.08835    66.11282    66.18252 
   8   1   2     1.06288    65.58684    66.67588 
   8   1   3     1.02413    61.98494    61.71921 
   8   1   4     0.97638   337.50449   333.85841 
   8   1   5     0.92379   108.95392   107.67006 
   8   1   6     0.86975    24.24400    24.28815 
   8   1   7     0.81667    54.01816    53.62984 
   8   1   8     0.76605    43.49961    44.30325 
   8   1   9     0.71868  1296.25446  1283.25265 
   8   1  10     0.67490    46.37360    47.05515 
   8   1  11     0.63474   403.66658   403.20694 
   8   1  12     0.59805   109.17929   107.26437 
   8   1  13     0.56459   182.64973   181.49365 
   8   1  14     0.53409   238.73096   237.77032 
   8   1  15     0.50628   454.69948   458.68240 
   8   1  16     0.48087    13.95168    14.24891 
   8   1  17     0.45763    26.65872    26.82672 
   8   1  18     0.43633    31.02982    30.77919 
   8   1  19     0.41675    43.81771    42.80677 
   8   1  20     0.39873    22.37852    21.90933 
   8   1  21     0.38209    34.84791    35.16597 
   8   2   0     1.08495    60.44825    61.03502 
   8   2   1     1.07634    40.15641    40.65044 
   8   2   2     1.05169   982.31136   976.50887 
   8   2   3     1.01411   102.30088   100.58659 
   8   2   4     0.96769   410.61438   416.35226 
   8   2   5     0.91642   343.51657   339.49424 
   8   2   6     0.86359    88.79724    89.02671 
   8   2   7     0.81156    25.95694    25.65551 
   8   2   8     0.76182  1382.91755  1399.42246 
   8   2   9     0.71519   196.49790   197.09986 
   8   2  10     0.67201   153.85758   153.71777 
   8   2  11     0.63233   202.44591   202.71403 
   8   2  12     0.59603   159.28909   156.96129 
   8   2  13     0.56289   107.61274   106.52120 
   8   2  14     0.53265   870.69851   865.41724 
   8   2  15     0.50505   112.36373   113.05417 
   8   2  16     0.47982    81.54369    82.65906 
   8   2  17     0.45673     6.85643     6.96303 
   8   2  18     0.43554     3.52378     3.50636 
   8   2  19     0.41607   190.08402   186.20610 
   8   2  20     0.39813   155.14863   151.49417 
   8   2  21     0.38157    55.29657    55.85274 
   8   3   0     1.06535    25.57351    25.99434 
   8   3   1     1.05719     0.93340     0.93203 
   8   3   2     1.03380    12.97166    12.93000 
   8   3   3     0.99805     2.28175     2.28243 
   8   3   4     0.95370    93.51673    93.16450 
   8   3   5     0.90451     1.36799     1.37837 
   8   3   6     0.85360     1.98322     1.98691 
   8   3   7     0.80326   160.36627   160.06728 
   8   3   8     0.75494    39.32917    39.52820 
   8   3   9     0.70949   685.43942   694.36291 
   8   3  10     0.66727    61.20697    61.46404 
   8   3  11     0.62838   509.28527   510.56768 
   8   3  12     0.59272    55.32278    55.00791 
   8   3  13     0.56010   472.50217   465.88019 
   8   3  14     0.53029   188.93186   185.67161 
   8   3  15     0.50303   205.49750   207.00286 
   8   3  16     0.47809    17.15446    17.50412 
   8   3  17     0.45523     6.50831     6.60108 
   8   3  18     0.43424    44.98435    44.63954 
   8   3  19     0.41494    27.04702    26.48108 
   8   3  20     0.39714    15.56919    15.30023 
   8   3  21     0.38069   127.60652   128.67291 
   8   4   0     1.03960   709.83824   704.12298 
   8   4   1     1.03202     5.89625     5.81798 
   8   4   2     1.01022   457.22010   459.53092 
   8   4   3     0.97678   319.70944   316.44716 
   8   4   4     0.93509   147.64515   148.08098 
   8   4   5     0.88859   656.86364   656.67683 
   8   4   6     0.84019   116.07878   114.24353 
   8   4   7     0.79205    19.67580    19.60640 
   8   4   8     0.74561  2143.35518  2141.19610 
   8   4   9     0.70173    60.57108    61.74554 
   8   4  10     0.66080    57.70974    58.20324 
   8   4  11     0.62297   214.57858   212.41202 
   8   4  12     0.58817   308.40400   305.81490 
   8   4  13     0.55626    58.61991    57.72395 
   8   4  14     0.52702  2467.30157  2442.54818 
   8   4  15     0.50024   150.70234   152.74379 
   8   4  16     0.47569   210.89248   216.03916 
   8   4  17     0.45316    36.14746    36.63922 
   8   4  18     0.43245  2722.93585  2687.80973 
   8   4  19     0.41337   277.33404   270.16900 
   8   4  20     0.39576  2158.29060  2133.69709 
   8   4  21     0.37948    14.89506    14.98609 
   8   5   0     1.00909   256.99988   257.26081 
   8   5   1     1.00215   452.68075   454.03768 
   8   5   2     0.98216   307.74634   310.01298 
   8   5   3     0.95134     4.29494     4.31046 
   8   5   4     0.91270     0.15054     0.15175 
   8   5   5     0.86931     0.83990     0.84338 
   8   5   6     0.82383     6.73823     6.77755 
   8   5   7     0.77830   120.63056   121.25251 
   8   5   8     0.73411    27.60033    27.95747 
   8   5   9     0.69211  1501.21141  1506.42048 
   8   5  10     0.65276   123.49359   122.86820 
   8   5  11     0.61621   428.99649   425.44166 
   8   5  12     0.58248    26.85170    26.70189 
   8   5  13     0.55143   145.85253   145.13002 
   8   5  14     0.52291   103.02488   103.16576 
   8   5  15     0.49672  1047.76543  1061.79975 
   8   5  16     0.47266    33.67467    34.47866 
   8   5  17     0.45054    62.31427    63.18507 
   8   5  18     0.43017    30.60215    30.15296 
   8   5  19     0.41138    35.25392    34.54597 
   8   5  20     0.39401    32.51739    32.40308 
   8   5  21     0.37794     0.07268     0.07369 
   8   6   0     0.97520  1732.68020  1723.71429 
   8   6   1     0.96894     0.02446     0.02469 
   8   6   2     0.95083  4986.16129  5003.15267 
   8   6   3     0.92279   565.38874   559.93943 
   8   6   4     0.88740  2637.93926  2626.43620 
   8   6   5     0.84736  1193.63719  1182.17629 
   8   6   6     0.80508   982.42467   979.23227 
   8   6   7     0.76243   118.85768   120.39078 
   8   6   8     0.72075  2016.61797  2023.94329 
   8   6   9     0.68088    10.60240    10.86867 
   8   6  10     0.64331   408.20255   407.29883 
   8   6  11     0.60825    95.28157    93.23448 
   8   6  12     0.57574   331.81014   326.01925 
   8   6  13     0.54570   108.23992   107.27243 
   8   6  14     0.51802   951.85853   962.78779 
   8   6  15     0.49252   141.18400   144.22225 
   8   6  16     0.46904     5.02805     5.21151 
   8   6  17     0.44740    19.18568    19.24432 
   8   6  18     0.42743    21.31785    21.26336 
   8   6  19     0.40898   128.74250   125.49199 
   8   6  20     0.39191   171.22823   171.04138 
   8   6  21     0.37608    43.14497    43.90240 
   8   7   0     0.93925   387.64781   388.26347 
   8   7   1     0.93364    27.09298    27.09785 
   8   7   2     0.91741   461.49615   456.72988 
   8   7   3     0.89215   150.41096   147.89806 
   8   7   4     0.86005    11.04714    11.00103 
   8   7   5     0.82345   192.71574   193.91781 
   8   7   6     0.78449     3.33903     3.32127 
   8   7   7     0.74488   254.94649   255.17513 
   8   7   8     0.70586     5.34621     5.41897 
   8   7   9     0.66829   228.50532   230.83536 
   8   7  10     0.63266   129.94745   129.96064 
   8   7  11     0.59922   615.72749   607.55810 
   8   7  12     0.56806     0.44735     0.44121 
   8   7  13     0.53915   878.88878   870.07944 
   8   7  14     0.51241    71.71762    72.06249 
   8   7  15     0.48769    61.70521    62.56768 
   8   7  16     0.46486    30.57860    31.35277 
   8   7  17     0.44377   108.05334   108.24299 
   8   7  18     0.42426    69.33954    68.04792 
   8   7  19     0.40620    11.95338    11.67991 
   8   7  20     0.38946    13.36556    13.36383 
   8   7  21     0.37391   253.84456   265.29407 
   8   8   0     0.90232  1077.58647  1080.58045 
   8   8   1     0.89735     5.97055     5.97359 
   8   8   2     0.88291     0.61418     0.61092 
   8   8   3     0.86032   632.60525   629.93593 
   8   8   4     0.83143    12.00450    11.97334 
   8   8   5     0.79823  1142.92651  1133.60368 
   8   8   6     0.76259   265.23948   268.50032 
   8   8   7     0.72605   201.51891   202.53754 
   8   8   8     0.68978   890.80667   904.00693 
   8   8   9     0.65460     1.81834     1.81231 
   8   8  10     0.62100    20.90639    20.79927 
   8   8  11     0.58929   114.72992   114.00364 
   8   8  12     0.55958   199.98760   197.01802 
   8   8  13     0.53189    59.49796    58.86168 
   8   8  14     0.50616  1633.11370  1645.57802 
   8   8  15     0.48229   147.33139   152.03173 
   8   8  16     0.46018   306.49355   307.66227 
   8   8  17     0.43969    30.09291    30.08307 
   8   8  18     0.42069  2204.98294  2142.12787 
   8   8  19     0.40307   187.00260   183.35174 
   8   8  20     0.38669  1841.11491  1845.13288 
   8   9   0     0.86531   170.46426   171.86984 
   8   9   1     0.86093   617.50385   614.50650 
   8   9   2     0.84815   172.91312   170.75215 
   8   9   3     0.82807    10.48728    10.44690 
   8   9   4     0.80221     9.68375     9.69309 
   8   9   5     0.77227    66.86886    66.76414 
   8   9   6     0.73986     2.51872     2.52476 
   8   9   7     0.70635   202.24368   205.53392 
   8   9   8     0.67282     0.05464     0.05474 
   8   9   9     0.64005  1746.15468  1731.71748 
   8   9  10     0.60854   161.04304   157.80647 
   8   9  11     0.57861   345.18417   341.13252 
   8   9  12     0.55041     5.72925     5.68044 
   8   9  13     0.52399    39.51597    39.78220 
   8   9  14     0.49934    38.40877    38.93527 
   8   9  15     0.47639  1225.61214  1257.85285 
   8   9  16     0.45504    40.37870    40.90286 
   8   9  17     0.43520   146.00275   145.71205 
   8   9  18     0.41675    31.40355    30.67863 
   8   9  19     0.39960    46.20428    45.45050 
   8   9  20     0.38363    48.37699    48.74893 
   8  10   0     0.82890   878.99054   877.29006 
   8  10   1     0.82504     0.57188     0.57032 
   8  10   2     0.81378  2306.04025  2287.95963 
   8  10   3     0.79599   401.89703   399.57553 
   8  10   4     0.77294  1573.80137  1572.19604 
   8  10   5     0.74605   791.09960   790.81040 
   8  10   6     0.71671  1024.48741  1027.91254 
   8  10   7     0.68612    69.99410    70.83278 
   8  10   8     0.65527  1663.20587  1661.85625 
   8  10   9     0.62488    15.96530    15.81241 
   8  10  10     0.59546   701.43965   693.37498 
   8  10  11     0.56733    96.78138    95.55723 
   8  10  12     0.54067   498.85225   493.31529 
   8  10  13     0.51557    96.80203    98.48283 
   8  10  14     0.49204   689.66831   702.31187 
   8  10  15     0.47003    97.07790   100.96738 
   8  10  16     0.44949     8.27427     8.34583 
   8  10  17     0.43034     8.93235     8.80488 
   8  10  18     0.41248    12.08515    11.80307 
   8  10  19     0.39583   109.94906   108.67043 
   8  10  20     0.38029   105.09373   106.02616 
   8  11   0     0.79355     1.96605     1.95394 
   8  11   1     0.79016   261.63439   260.87077 
   8  11   2     0.78025     2.75909     2.75379 
   8  11   3     0.76453    16.95358    17.14458 
   8  11   4     0.74404   119.43183   119.98727 
   8  11   5     0.71996    25.71455    25.75113 
   8  11   6     0.69349    50.67055    50.80807 
   8  11   7     0.66567   922.95026   936.72815 
   8  11   8     0.63738     2.64636     2.61827 
   8  11   9     0.60931    98.48060    97.07671 
   8  11  10     0.58194    59.08534    58.43919 
   8  11  11     0.55560   540.32103   532.99196 
   8  11  12     0.53049     2.43840     2.39453 
   8  11  13     0.50672   854.57142   865.00533 
   8  11  14     0.48433    64.75113    66.36681 
   8  11  15     0.46330     7.14640     7.27458 
   8  11  16     0.44359    16.48979    16.53179 
   8  11  17     0.42515   157.10886   154.53947 
   8  11  18     0.40791    76.62156    75.24092 
   8  11  19     0.39178    14.00930    13.98869 
   8  11  20     0.37669    14.41070    14.58633 
   8  12   0     0.75959    18.85090    18.87783 
   8  12   1     0.75662     0.02868     0.02866 
   8  12   2     0.74790   799.54997   800.13541 
   8  12   3     0.73403   155.44206   157.43940 
   8  12   4     0.71583   475.84736   478.64863 
   8  12   5     0.69432   282.23118   283.53897 
   8  12   6     0.67048    61.79214    61.70710 
   8  12   7     0.64524     5.00509     4.98965 
   8  12   8     0.61938   704.71124   702.13189 
   8  12   9     0.59353    82.99019    81.88729 
   8  12  10     0.56815   152.41207   150.31229 
   8  12  11     0.54356   165.66324   164.03511 
   8  12  12     0.51998   325.22646   323.17601 
   8  12  13     0.49754    76.10930    76.85558 
   8  12  14     0.47629  1189.57063  1220.75567 
   8  12  15     0.45624    95.90034    97.48870 
   8  12  16     0.43739   748.64653   742.86833 
   8  12  17     0.41968     5.12683     5.00542 
   8  12  18     0.40307  1940.10518  1902.26918 
   8  12  19     0.38749   135.91605   136.57180 
   8  12  20     0.37287  1644.76470  1754.81012 
   8  13   0     0.72721    37.99577    38.26946 
   8  13   1     0.72460   553.40465   558.65037 
   8  13   2     0.71693   117.58359   117.61797 
   8  13   3     0.70468   111.76514   113.17867 
   8  13   4     0.68854   267.57514   271.51654 
   8  13   5     0.66932   304.51658   305.16897 
   8  13   6     0.64789    49.39742    49.23534 
   8  13   7     0.62503   123.31239   122.22143 
   8  13   8     0.60144     0.03334     0.03300 
   8  13   9     0.57769  1791.64616  1764.85358 
   8  13  10     0.55421    24.92252    24.46600 
   8  13  11     0.53131   262.56318   258.78033 
   8  13  12     0.50923    52.89496    53.35702 
   8  13  13     0.48809     1.12933     1.14679 
   8  13  14     0.46798    55.61947    56.77132 
   8  13  15     0.44893  1058.86423  1064.19507 
   8  13  16     0.43093    12.75663    12.57980 
   8  13  17     0.41397   225.47844   220.43628 
   8  13  18     0.39800    21.23920    20.74238 
   8  13  19     0.38298    65.62000    66.14062 
   8  14   0     0.69650   190.06151   191.79473 
   8  14   1     0.69421     3.15623     3.16874 
   8  14   2     0.68746   251.12378   255.25153 
   8  14   3     0.67663    60.24039    61.29755 
   8  14   4     0.66230   277.04091   279.72010 
   8  14   5     0.64515   112.41484   112.11077 
   8  14   6     0.62589   424.36507   420.88259 
   8  14   7     0.60521    16.21560    16.17082 
   8  14   8     0.58372   466.53191   461.58796 
   8  14   9     0.56193   136.72021   134.24878 
   8  14  10     0.54025   508.07515   501.06708 
   8  14  11     0.51898   201.11445   200.38210 
   8  14  12     0.49834   367.41928   371.80960 
   8  14  13     0.47848   124.05375   126.29479 
   8  14  14     0.45949   243.15139   243.66481 
   8  14  15     0.44141    70.60109    70.88308 
   8  14  16     0.42427    48.76152    47.85324 
   8  14  17     0.40805     3.31890     3.25716 
   8  14  18     0.39273     0.57545     0.57416 
   8  14  19     0.37828    92.19822    93.37198 
   8  15   0     0.66750    31.44148    31.61380 
   8  15   1     0.66548   322.72315   328.00657 
   8  15   2     0.65952    82.96254    83.87441 
   8  15   3     0.64995    57.52761    57.98805 
   8  15   4     0.63722   135.44811   134.08579 
   8  15   5     0.62190    73.88010    73.22392 
   8  15   6     0.60459    27.88980    27.79718 
   8  15   7     0.58589   948.86672   928.05271 
   8  15   8     0.56633     6.42978     6.34478 
   8  15   9     0.54636    22.89409    22.70527 
   8  15  10     0.52637     1.28358     1.27474 
   8  15  11     0.50664   529.69653   535.93442 
   8  15  12     0.48738    38.96684    39.49836 
   8  15  13     0.46876   938.24215   968.14552 
   8  15  14     0.45086    97.88477    99.01375 
   8  15  15     0.43375    31.42100    30.98952 
   8  15  16     0.41745     1.33895     1.30354 
   8  15  17     0.40197   218.14318   212.61772 
   8  15  18     0.38730    56.53775    56.83085 
   8  15  19     0.37342     7.03446     7.42582 
   8  16   0     0.64017   168.21859   166.95276 
   8  16   1     0.63839     0.56247     0.55668 
   8  16   2     0.63313   461.40987   460.64576 
   8  16   3     0.62465    61.61846    60.95428 
   8  16   4     0.61332   604.51789   595.72286 
   8  16   5     0.59962    92.88728    91.66985 
   8  16   6     0.58407   587.47607   578.79516 
   8  16   7     0.56715     3.25245     3.21358 
   8  16   8     0.54935   581.36574   573.64727 
   8  16   9     0.53108   149.05957   146.70096 
   8  16  10     0.51266   618.09015   621.61745 
   8  16  11     0.49438   202.34153   209.07863 
   8  16  12     0.47644   645.41654   662.42056 
   8  16  13     0.45899   128.82693   129.16703 
   8  16  14     0.44215   820.49226   822.60672 
   8  16  15     0.42598    95.92993    94.29519 
   8  16  16     0.41051  1324.96172  1289.41302 
   8  16  17     0.39577     1.77554     1.75528 
   8  16  18     0.38174  1545.47217  1560.84879 
   8  17   0     0.61449     5.73468     5.67669 
   8  17   1     0.61291   627.22950   617.77316 
   8  17   2     0.60825     0.29560     0.28925 
   8  17   3     0.60071     0.48635     0.48053 
   8  17   4     0.59062    18.49529    18.43615 
   8  17   5     0.57836    46.36294    45.77988 
   8  17   6     0.56436     1.02181     1.01587 
   8  17   7     0.54906   291.34247   287.57939 
   8  17   8     0.53286    15.34621    15.25641 
   8  17   9     0.51613  1251.08397  1274.85519 
   8  17  10     0.49918     1.64312     1.66598 
   8  17  11     0.48225   275.81137   284.52159 
   8  17  12     0.46556    85.94605    88.30454 
   8  17  13     0.44924    13.43901    13.52908 
   8  17  14     0.43342    50.18371    49.53172 
   8  17  15     0.41815  1038.91943  1011.10413 
   8  17  16     0.40349     1.59511     1.57079 
   8  17  17     0.38946   136.33517   136.31794 
   8  17  18     0.37608    12.29289    12.50874 
   8  18   0     0.59036  1099.64544  1095.86374 
   8  18   1     0.58896     4.58398     4.54998 
   8  18   2     0.58482   819.17331   801.97605 
   8  18   3     0.57811   170.83635   168.56397 
   8  18   4     0.56910   780.03327   768.53994 
   8  18   5     0.55810   228.17044   223.48080 
   8  18   6     0.54550   974.90537   965.28799 
   8  18   7     0.53164     7.03922     6.95099 
   8  18   8     0.51690   191.69387   195.28408 
   8  18   9     0.50158    48.13258    49.04035 
   8  18  10     0.48598   605.30600   620.77728 
   8  18  11     0.47032   172.81628   179.69062 
   8  18  12     0.45480   396.50051   401.03097 
   8  18  13     0.43955   138.20464   138.19271 
   8  18  14     0.42469    70.66027    69.39249 
   8  18  15     0.41030    78.90753    76.68921 
   8  18  16     0.39643   214.69963   212.02204 
   8  18  17     0.38310     8.51865     8.58735 
   8  19   0     0.56771    76.98523    75.94074 
   8  19   1     0.56646   184.49800   182.22947 
   8  19   2     0.56278   102.86724   101.78105 
   8  19   3     0.55679   207.83430   204.59226 
   8  19   4     0.54872    15.48419    15.29946 
   8  19   5     0.53885   252.62979   250.72530 
   8  19   6     0.52748     4.35784     4.30916 
   8  19   7     0.51492   492.54242   499.83241 
   8  19   8     0.50149    17.85079    18.17921 
   8  19   9     0.48747     1.71851     1.74201 
   8  19  10     0.47311     5.73023     5.85282 
   8  19  11     0.45863   497.46222   499.00669 
   8  19  12     0.44420    20.91211    20.91457 
   8  19  13     0.42996   975.56665   960.92082 
   8  19  14     0.41602    54.13750    53.03224 
   8  19  15     0.40247     5.12814     4.99573 
   8  19  16     0.38934     1.01044     1.01023 
   8  19  17     0.37670   258.60986   261.75759 
   8  20   0     0.54644    34.20315    33.90438 
   8  20   1     0.54533    33.90943    33.56557 
   8  20   2     0.54204    21.62902    21.34907 
   8  20   3     0.53669   288.19367   283.62158 
   8  20   4     0.52945    48.92422    48.28166 
   8  20   5     0.52057   409.58481   410.15013 
   8  20   6     0.51029   394.24635   395.86078 
   8  20   7     0.49890    95.39680    96.71679 
   8  20   8     0.48665    43.68369    44.53832 
   8  20   9     0.47381    13.15985    13.41770 
   8  20  10     0.46059   564.56848   566.77532 
   8  20  11     0.44720    85.02764    85.27841 
   8  20  12     0.43379   563.52391   555.90107 
   8  20  13     0.42050   123.40800   119.91194 
   8  20  14     0.40743   330.50027   324.74893 
   8  20  15     0.39467    87.15514    86.90361 
   8  20  16     0.38228  1644.52305  1658.77299 
   8  21   0     0.52648   127.54689   126.58019 
   8  21   1     0.52549   403.79136   403.87874 
   8  21   2     0.52254   131.31502   130.95633 
   8  21   3     0.51774     2.95514     2.99595 
   8  21   4     0.51124    19.77588    19.80454 
   8  21   5     0.50322    11.92479    11.99023 
   8  21   6     0.49392    12.37654    12.78297 
   8  21   7     0.48357   198.82566   204.60837 
   8  21   8     0.47239     1.85459     1.90303 
   8  21   9     0.46062   750.86756   753.78652 
   8  21  10     0.44845     0.00058     0.00058 
   8  21  11     0.43605   234.86818   233.00170 
   8  21  12     0.42360    26.31528    25.78744 
   8  21  13     0.41120    26.79406    26.22402 
   8  21  14     0.39895     8.07356     7.92066 
   8  21  15     0.38695   708.80821   711.78718 
   8  21  16     0.37525     3.55662     3.65407 
   8  22   0     0.50773  1598.28803  1619.39610 
   8  22   1     0.50684    32.15714    32.56858 
   8  22   2     0.50419   856.83645   860.74967 
   8  22   3     0.49988   353.80756   358.48193 
   8  22   4     0.49401  1211.28517  1251.49675 
   8  22   5     0.48677   455.28198   463.44535 
   8  22   6     0.47834  2051.86606  2089.95312 
   8  22   7     0.46892   131.82806   136.37912 
   8  22   8     0.45870   290.64916   291.53201 
   8  22   9     0.44790     0.46744     0.46771 
   8  22  10     0.43669  1281.14931  1271.79186 
   8  22  11     0.42522    75.03889    73.81916 
   8  22  12     0.41364   757.37430   738.92737 
   8  22  13     0.40207    84.02623    81.85537 
   8  22  14     0.39061    41.93280    41.79262 
   8  22  15     0.37932    56.16521    56.51075 
   8  23   0     0.49010    31.32603    32.00113 
   8  23   1     0.48930   113.03107   115.47249 
   8  23   2     0.48692    46.49740    47.25223 
   8  23   3     0.48303    60.38835    62.33435 
   8  23   4     0.47773     3.22266     3.30193 
   8  23   5     0.47118    63.64988    65.81827 
   8  23   6     0.46351     1.13598     1.15712 
   8  23   7     0.45492   375.08374   379.66351 
   8  23   8     0.44558     0.80201     0.80129 
   8  23   9     0.43566    16.23314    16.13709 
   8  23  10     0.42532     0.02743     0.02699 
   8  23  11     0.41471   346.97967   339.79186 
   8  23  12     0.40395     2.29866     2.27076 
   8  23  13     0.39315   621.73491   619.58419 
   8  23  14     0.38241    12.39012    12.49382 
   8  24   0     0.47352   351.39481   358.53402 
   8  24   1     0.47280    33.96406    34.74274 
   8  24   2     0.47065     0.00714     0.00741 
   8  24   3     0.46713   232.84801   237.87230 
   8  24   4     0.46234    96.11656    97.30320 
   8  24   5     0.45639   331.51516   337.03597 
   8  24   6     0.44941   543.06170   547.37232 
   8  24   7     0.44157   102.28313   102.69904 
   8  24   8     0.43301    22.97114    22.75505 
   8  24   9     0.42389     1.27652     1.25247 
   8  24  10     0.41435   424.10895   415.22313 
   8  24  11     0.40452    37.96487    37.56585 
   8  24  12     0.39451   419.31367   418.28249 
   8  24  13     0.38443    91.43136    91.43739 
   8  24  14     0.37437    96.18826    99.77788 
   8  25   0     0.45791     0.25228     0.25338 
   8  25   1     0.45726   122.47070   123.72335 
   8  25   2     0.45531     4.81749     4.88844 
   8  25   3     0.45213     0.27975     0.28374 
   8  25   4     0.44778    14.67804    14.69722 
   8  25   5     0.44236    24.61689    24.67797 
   8  25   6     0.43600     1.96311     1.94779 
   8  25   7     0.42883    20.11537    19.89088 
   8  25   8     0.42098     1.49170     1.45009 
   8  25   9     0.41258   393.02948   383.60737 
   8  25  10     0.40377     0.62728     0.61896 
   8  25  11     0.39465   176.22119   175.73256 
   8  25  12     0.38534    13.92820    13.83740 
   8  25  13     0.37594    31.56456    32.17480 
   8  26   0     0.44320   927.32051   930.55607 
   8  26   1     0.44261    15.66467    15.70815 
   8  26   2     0.44084   137.61703   137.65989 
   8  26   3     0.43795   140.67849   140.03103 
   8  26   4     0.43399   552.45708   546.05160 
   8  26   5     0.42905   150.58903   148.73059 
   8  26   6     0.42325  1749.43428  1711.76237 
   8  26   7     0.41668    35.63656    34.83277 
   8  26   8     0.40946   120.54929   117.11228 
   8  26   9     0.40172     3.61520     3.53229 
   8  26  10     0.39357  1375.78079  1370.06599 
   8  26  11     0.38512    82.86125    82.40220 
   8  26  12     0.37645   839.31211   850.69954 
   8  27   0     0.42932    26.73419    26.36746 
   8  27   1     0.42878    15.85258    15.68029 
   8  27   2     0.42718    33.13355    33.00944 
   8  27   3     0.42454    20.84483    20.46068 
   8  27   4     0.42093    33.45726    32.51928 
   8  27   5     0.41642    12.85156    12.58058 
   8  27   6     0.41111    16.57381    16.20958 
   8  27   7     0.40508   136.23214   134.30791 
   8  27   8     0.39844     1.91238     1.86857 
   8  27   9     0.39130    65.14114    64.94460 
   8  27  10     0.38376     5.11072     5.14672 
   8  27  11     0.37590   239.05377   243.78211 
   8  28   0     0.41621   768.12517   752.44050 
   8  28   1     0.41572    11.08991    10.85695 
   8  28   2     0.41426    58.38508    57.14797 
   8  28   3     0.41185    72.18287    70.76445 
   8  28   4     0.40855   320.49614   313.73303 
   8  28   5     0.40443    90.60122    89.65514 
   8  28   6     0.39955  1068.97613  1051.59172 
   8  28   7     0.39401     7.92154     7.89367 
   8  28   8     0.38790     2.87312     2.88034 
   8  28   9     0.38130    24.50430    24.73924 
   8  28  10     0.37431   637.70390   662.14241 
   8  29   0     0.40382    14.35298    14.16724 
   8  29   1     0.40337    20.36730    20.03561 
   8  29   2     0.40203    51.27895    49.96501 
   8  29   3     0.39983    26.43290    25.98920 
   8  29   4     0.39681    29.67677    29.24187 
   8  29   5     0.39303     7.56255     7.53878 
   8  29   6     0.38855     1.18332     1.18195 
   8  29   7     0.38345     0.08718     0.08788 
   8  29   8     0.37781     0.39258     0.39808 
   8  30   0     0.39209   839.02823   838.34764 
   8  30   1     0.39168    12.72967    12.70602 
   8  30   2     0.39045    80.17143    79.93379 
   8  30   3     0.38844    76.52081    76.45626 
   8  30   4     0.38567   385.30912   382.71357 
   8  30   5     0.38219    61.92396    62.47350 
   8  30   6     0.37807  1373.95877  1392.64756 
   8  30   7     0.37336     9.60679    10.15264 
   8  31   0     0.38097    10.33666    10.42516 
   8  31   1     0.38060    21.21211    21.39282 
   8  31   2     0.37947     7.07958     7.12283 
   8  31   3     0.37762    30.68654    31.10460 
   8  31   4     0.37508     6.97992     7.18447 
   9   0   1     0.97272  1343.32617  1364.41778 
   9   0   2     0.95441   299.65571   298.18066 
   9   0   3     0.92606    91.80498    90.84596 
   9   0   4     0.89030   259.36276   259.52382 
   9   0   5     0.84989   874.09706   866.22072 
   9   0   6     0.80725   174.17330   174.48565 
   9   0   7     0.76427   132.00942   133.20021 
   9   0   8     0.72231   143.97169   144.37118 
   9   0   9     0.68219     0.19725     0.19945 
   9   0  10     0.64442    36.66146    36.71108 
   9   0  11     0.60918   199.90785   196.87310 
   9   0  12     0.57653   104.74176   103.54074 
   9   0  13     0.54638     3.68748     3.65690 
   9   0  14     0.51859   184.44492   185.05125 
   9   0  15     0.49302    55.36093    56.84988 
   9   0  16     0.46947    62.69171    65.21793 
   9   0  17     0.44777   120.23524   120.39619 
   9   0  18     0.42775     7.65674     7.62885 
   9   0  19     0.40926     0.00489     0.00475 
   9   0  20     0.39216   220.03734   219.86028 
   9   0  21     0.37630   288.38764   292.70888 
   9   1   1     0.96983   237.70634   239.44183 
   9   1   2     0.95168    24.41418    24.48818 
   9   1   3     0.92356     7.10409     7.02343 
   9   1   4     0.88809   498.06253   496.58776 
   9   1   5     0.84796    97.59078    96.44615 
   9   1   6     0.80559    53.32986    53.17779 
   9   1   7     0.76287     1.40253     1.41668 
   9   1   8     0.72112   381.92722   383.17251 
   9   1   9     0.68119    59.54556    60.94921 
   9   1  10     0.64357   340.64744   340.40623 
   9   1  11     0.60847    14.16250    13.87143 
   9   1  12     0.57592    58.32952    57.41826 
   9   1  13     0.54586   420.42697   416.98471 
   9   1  14     0.51816    32.89120    33.21863 
   9   1  15     0.49264   306.03660   312.96786 
   9   1  16     0.46914     0.50015     0.51907 
   9   1  17     0.44749   128.93784   129.29623 
   9   1  18     0.42751    78.02096    77.82258 
   9   1  19     0.40905   137.75212   134.18181 
   9   1  20     0.39197     9.31251     9.30384 
   9   1  21     0.37613    40.67666    41.36398 
   9   2   1     0.96131     5.86109     5.88726 
   9   2   2     0.94362   137.40637   137.31307 
   9   2   3     0.91619    86.70477    85.68871 
   9   2   4     0.88153   248.25003   248.59515 
   9   2   5     0.84225   262.48731   261.96531 
   9   2   6     0.80069   169.83527   168.70161 
   9   2   7     0.75870   577.33292   576.83745 
   9   2   8     0.71759    34.86741    34.55633 
   9   2   9     0.67822   917.95968   928.72140 
   9   2  10     0.64106   621.82969   618.72211 
   9   2  11     0.60635  1642.00464  1638.80417 
   9   2  12     0.57412   609.65586   602.33687 
   9   2  13     0.54433  1166.11476  1156.36890 
   9   2  14     0.51684     0.13267     0.13520 
   9   2  15     0.49151   808.70737   822.83607 
   9   2  16     0.46817     5.11467     5.23058 
   9   2  17     0.44664  1722.43509  1721.25994 
   9   2  18     0.42677   835.11883   827.41013 
   9   2  19     0.40840   759.34161   744.07228 
   9   2  20     0.39140   110.98789   110.67883 
   9   2  21     0.37563   555.08722   567.92961 
   9   3   1     0.94759   638.67214   644.00159 
   9   3   2     0.93063    76.49281    75.93220 
   9   3   3     0.90429    10.47452    10.56978 
   9   3   4     0.87091   400.63413   399.12502 
   9   3   5     0.83297    15.14751    15.14757 
   9   3   6     0.79271   152.09503   151.24586 
   9   3   7     0.75190    98.02311    98.83340 
   9   3   8     0.71183   573.03186   581.53800 
   9   3   9     0.67335   410.86645   413.66488 
   9   3  10     0.63695   327.82133   324.94171 
   9   3  11     0.60286     4.12211     4.11138 
   9   3  12     0.57116     2.43678     2.40051 
   9   3  13     0.54180    78.13134    77.15403 
   9   3  14     0.51468    38.50272    38.99522 
   9   3  15     0.48965   239.99377   245.27755 
   9   3  16     0.46656     0.56902     0.58221 
   9   3  17     0.44524   241.32397   241.72003 
   9   3  18     0.42555    28.75278    28.27687 
   9   3  19     0.40733    15.77474    15.49508 
   9   3  20     0.39045     0.22535     0.22468 
   9   3  21     0.37479   121.37274   125.29857 
   9   4   1     0.92933  3948.95053  3935.63741 
   9   4   2     0.91332   139.02302   139.52989 
   9   4   3     0.88839   673.53146   672.44274 
   9   4   4     0.85668  1393.90598  1389.22386 
   9   4   5     0.82049  2489.94632  2485.90343 
   9   4   6     0.78193     0.81243     0.80928 
   9   4   7     0.74268   609.23097   611.82567 
   9   4   8     0.70400    24.05113    24.42224 
   9   4   9     0.66671    62.97892    63.30425 
   9   4  10     0.63131   150.51401   150.48720 
   9   4  11     0.59808   679.17259   667.47255 
   9   4  12     0.56709   158.91040   157.05387 
   9   4  13     0.53832    18.33568    18.20942 
   9   4  14     0.51169   261.21976   261.69944 
   9   4  15     0.48708   228.12686   231.52309 
   9   4  16     0.46433    78.18153    79.67959 
   9   4  17     0.44330   329.41353   330.53462 
   9   4  18     0.42386    17.72012    17.38423 
   9   4  19     0.40585     7.39452     7.23361 
   9   4  20     0.38915   343.22746   343.04231 
   9   4  21     0.37364   584.25491   613.93522 
   9   5   1     0.90734   524.69531   518.95610 
   9   5   2     0.89242    25.98771    25.61930 
   9   5   3     0.86912   240.17017   241.34919 
   9   5   4     0.83936   910.71589   899.62188 
   9   5   5     0.80524   554.78637   553.08837 
   9   5   6     0.76869   189.35290   190.49568 
   9   5   7     0.73131   210.49754   214.23629 
   9   5   8     0.69429   699.16316   702.30020 
   9   5   9     0.65845   426.61686   432.35943 
   9   5  10     0.62429   826.37981   816.66449 
   9   5  11     0.59209   743.59194   742.13306 
   9   5  12     0.56198    11.90506    11.69705 
   9   5  13     0.53394   227.12710   226.09684 
   9   5  14     0.50793    93.17389    94.38669 
   9   5  15     0.48383   112.09716   115.20765 
   9   5  16     0.46151    19.34422    19.45918 
   9   5  17     0.44085    13.89248    13.89777 
   9   5  18     0.42171   106.46172   103.81577 
   9   5  19     0.40396   319.43391   315.58482 
   9   5  20     0.38748    27.99229    28.12779 
   9   5  21     0.37216     1.96457     2.12379 
   9   6   1     0.88247   170.03093   169.55198 
   9   6   2     0.86873   480.86825   483.46821 
   9   6   3     0.84719     2.11620     2.09672 
   9   6   4     0.81956    51.23660    50.97351 
   9   6   5     0.78770    32.23667    32.09871 
   9   6   6     0.75340   882.46296   891.40253 
   9   6   7     0.71810   189.56291   187.25681 
   9   6   8     0.68296    56.30880    56.82309 
   9   6   9     0.64875   417.77273   418.71400 
   9   6  10     0.61601   229.95669   227.45978 
   9   6  11     0.58502   903.27555   883.47389 
   9   6  12     0.55592   450.69194   444.30307 
   9   6  13     0.52874   682.83254   674.21807 
   9   6  14     0.50344     0.15136     0.15201 
   9   6  15     0.47994   530.14428   537.59541 
   9   6  16     0.45814     9.04441     9.07789 
   9   6  17     0.43791  1293.00759  1286.56510 
   9   6  18     0.41913   551.61742   538.74696 
   9   6  19     0.40169   654.24561   639.48067 
   9   6  20     0.38548    81.60394    81.04682 
   9   7   1     0.85556   920.10535   917.72267 
   9   7   2     0.84302   240.80770   240.39957 
   9   7   3     0.82329   151.83950   152.74299 
   9   7   4     0.79786   482.59804   478.62447 
   9   7   5     0.76839    27.74980    28.01187 
   9   7   6     0.73644   542.82297   539.80709 
   9   7   7     0.70338   714.98103   726.60255 
   9   7   8     0.67025  1008.95357  1007.21476 
   9   7   9     0.63783  1551.64254  1534.30556 
   9   7  10     0.60664   394.54874   393.22565 
   9   7  11     0.57697    58.72454    57.91943 
   9   7  12     0.54900    44.95655    44.38371 
   9   7  13     0.52278    56.20098    56.20033 
   9   7  14     0.49829    40.40897    40.88282 
   9   7  15     0.47547   102.29077   104.66204 
   9   7  16     0.45424     5.01876     5.07175 
   9   7  17     0.43450   302.34014   301.24729 
   9   7  18     0.41614     2.79105     2.73417 
   9   7  19     0.39906    12.02273    11.80595 
   9   7  20     0.38315     5.30279     5.34583 
   9   8   1     0.82737  3334.37202  3315.54549 
   9   8   2     0.81601     8.16660     8.06500 
   9   8   3     0.79808   856.26354   849.25546 
   9   8   4     0.77486  1348.52418  1336.42051 
   9   8   5     0.74777  2318.86873  2320.23776 
   9   8   6     0.71823    70.03064    69.18192 
   9   8   7     0.68746   847.21275   861.14871 
   9   8   8     0.65644     1.43746     1.44360 
   9   8   9     0.62589   243.42174   241.42243 
   9   8  10     0.59634   116.50104   114.33871 
   9   8  11     0.56809   809.14369   798.01890 
   9   8  12     0.54133    56.86408    56.19198 
   9   8  13     0.51614   119.67208   121.95076 
   9   8  14     0.49253   162.02454   165.52278 
   9   8  15     0.47046   324.62335   337.39809 
   9   8  16     0.44987    55.13986    55.81475 
   9   8  17     0.43067   357.36759   352.50196 
   9   8  18     0.41277     2.61435     2.54890 
   9   8  19     0.39608    46.11960    45.56170 
   9   8  20     0.38051   176.08533   177.60925 
   9   9   1     0.79856    48.80875    48.41083 
   9   9   2     0.78834    43.76420    43.48032 
   9   9   3     0.77213   143.20603   143.03162 
   9   9   4     0.75104  1275.40003  1283.21928 
   9   9   5     0.72630  1294.65373  1300.87113 
   9   9   6     0.69914   325.47846   330.21208 
   9   9   7     0.67067   358.92124   358.52725 
   9   9   8     0.64177   720.66889   716.37601 
   9   9   9     0.61314   383.12485   377.41568 
   9   9  10     0.58528   897.98640   877.89065 
   9   9  11     0.55850  1216.00055  1190.52217 
   9   9  12     0.53301    18.67843    18.57210 
   9   9  13     0.50892   263.00462   265.68188 
   9   9  14     0.48624    63.84116    65.38968 
   9   9  15     0.46497    65.08033    66.79958 
   9   9  16     0.44506    23.01278    23.05444 
   9   9  17     0.42645     1.41375     1.39377 
   9   9  18     0.40905   134.87339   131.37533 
   9   9  19     0.39279   496.41992   495.22193 
   9   9  20     0.37759    40.51218    41.05968 
   9  10   1     0.76968     7.23470     7.23957 
   9  10   2     0.76051   100.26552   100.65257 
   9  10   3     0.74593   128.50022   128.42171 
   9  10   4     0.72686     0.93583     0.94124 
   9  10   5     0.70436   193.43093   196.15458 
   9  10   6     0.67951   173.86387   176.24855 
   9  10   7     0.65328   368.69292   367.81756 
   9  10   8     0.62648     0.52896     0.52325 
   9  10   9     0.59977   592.06980   584.49797 
   9  10  10     0.57361   146.94090   145.07052 
   9  10  11     0.54834   926.59521   915.87839 
   9  10  12     0.52416   199.27031   200.73772 
   9  10  13     0.50119   797.28182   810.44687 
   9  10  14     0.47949    11.83252    12.00297 
   9  10  15     0.45906   646.83821   648.44900 
   9  10  16     0.43987     1.49292     1.49161 
   9  10  17     0.42187  1151.35892  1124.32502 
   9  10  18     0.40501   312.23405   308.03917 
   9  10  19     0.38921   706.42494   706.12528 
   9  10  20     0.37441    20.84966    21.61936 
   9  11   1     0.74113   171.78594   173.01395 
   9  11   2     0.73293   302.97924   307.72597 
   9  11   3     0.71986   763.88292   764.41701 
   9  11   4     0.70267   265.44507   269.95259 
   9  11   5     0.68229     2.79014     2.81889 
   9  11   6     0.65963   522.17133   527.56464 
   9  11   7     0.63555   510.98019   510.97490 
   9  11   8     0.61080   689.58593   676.22553 
   9  11   9     0.58596   968.67769   947.40595 
   9  11  10     0.56150   109.94105   107.55967 
   9  11  11     0.53773    47.95270    47.49243 
   9  11  12     0.51487    35.61524    36.13011 
   9  11  13     0.49305    44.41871    45.63040 
   9  11  14     0.47235     0.90535     0.92933 
   9  11  15     0.45278   161.32024   164.13006 
   9  11  16     0.43434    35.47473    35.25749 
   9  11  17     0.41698   450.37379   439.31800 
   9  11  18     0.40067     0.28432     0.27973 
   9  11  19     0.38536    56.30791    55.93871 
   9  12   1     0.71324  1551.15316  1569.00179 
   9  12   2     0.70592    69.92646    70.90292 
   9  12   3     0.69422   428.67104   430.40012 
   9  12   4     0.67877    54.02317    54.62286 
   9  12   5     0.66034   939.45896   947.16702 
   9  12   6     0.63973    49.28175    48.80645 
   9  12   7     0.61770   327.64019   329.35773 
   9  12   8     0.59490   112.92744   111.25578 
   9  12   9     0.57188    77.79716    77.25231 
   9  12  10     0.54907     1.81369     1.79020 
   9  12  11     0.52679   258.26320   255.87329 
   9  12  12     0.50524     4.10677     4.12856 
   9  12  13     0.48458    55.45285    56.79945 
   9  12  14     0.46488   106.11715   108.82525 
   9  12  15     0.44619   177.74906   177.06608 
   9  12  16     0.42851    68.68810    68.05435 
   9  12  17     0.41182   207.47778   203.41710 
   9  12  18     0.39609    19.36544    19.13118 
   9  12  19     0.38127    88.97325    89.81801 
   9  13   1     0.68623    11.34326    11.47553 
   9  13   2     0.67971     2.73440     2.77586 
   9  13   3     0.66924   185.83140   186.39770 
   9  13   4     0.65536   758.07406   758.12009 
   9  13   5     0.63873   983.80505   974.37793 
   9  13   6     0.62003    99.39156    98.91917 
   9  13   7     0.59990    43.68709    43.14571 
   9  13   8     0.57895   271.46403   268.70381 
   9  13   9     0.55768     3.42897     3.36839 
   9  13  10     0.53646   507.95482   500.40323 
   9  13  11     0.51562   559.37517   569.15462 
   9  13  12     0.49536    58.22904    59.75756 
   9  13  13     0.47584   654.48766   670.98421 
   9  13  14     0.45715    20.13741    20.36800 
   9  13  15     0.43934   153.41139   153.39569 
   9  13  16     0.42243    18.03500    17.67934 
   9  13  17     0.40641     0.43632     0.42646 
   9  13  18     0.39127   129.09209   128.69542 
   9  13  19     0.37697   648.85289   656.48619 
   9  14   1     0.66025    22.20290    22.38673 
   9  14   2     0.65443     9.08130     9.05875 
   9  14   3     0.64507   252.04509   251.44998 
   9  14   4     0.63262    16.53982    16.54428 
   9  14   5     0.61762   380.21973   382.10512 
   9  14   6     0.60066    27.60102    27.27255 
   9  14   7     0.58231   802.05430   796.06306 
   9  14   8     0.56310   109.55985   108.51859 
   9  14   9     0.54346  1207.71778  1195.56792 
   9  14  10     0.52377    85.34170    85.85864 
   9  14  11     0.50432  1291.10811  1297.64108 
   9  14  12     0.48532    17.96991    18.41870 
   9  14  13     0.46692  1213.91192  1241.00250 
   9  14  14     0.44922    50.85942    51.19293 
   9  14  15     0.43229   912.26434   898.23137 
   9  14  16     0.41615    32.06896    31.41550 
   9  14  17     0.40081  1038.06796  1021.49684 
   9  14  18     0.38627   110.57097   110.28761 
   9  14  19     0.37249   805.07587   865.17286 
   9  15   1     0.63538   504.48623   504.58032 
   9  15   2     0.63020   157.51388   157.47539 
   9  15   3     0.62183   296.85332   294.34854 
   9  15   4     0.61065    17.85996    17.52247 
   9  15   5     0.59713   132.77308   129.47104 
   9  15   6     0.58176   227.82664   225.16245 
   9  15   7     0.56504   161.63828   159.92147 
   9  15   8     0.54743   310.18867   306.28537 
   9  15   9     0.52934   430.18554   424.65641 
   9  15  10     0.51110    11.72666    11.74804 
   9  15  11     0.49298   289.75762   297.41309 
   9  15  12     0.47518    46.64468    47.64785 
   9  15  13     0.45787    11.30982    11.36178 
   9  15  14     0.44115     1.08558     1.08850 
   9  15  15     0.42508   244.67413   240.63805 
   9  15  16     0.40971    45.19496    43.88459 
   9  15  17     0.39505   588.21319   584.77775 
   9  15  18     0.38110     7.77535     7.84467 
   9  16   1     0.61168  2238.80365  2204.20937 
   9  16   2     0.60705     1.51020     1.49776 
   9  16   3     0.59956  1182.40162  1166.77469 
   9  16   4     0.58952     0.07557     0.07517 
   9  16   5     0.57733   845.94737   832.70396 
   9  16   6     0.56340     0.16023     0.15886 
   9  16   7     0.54818   309.49515   305.87101 
   9  16   8     0.53206    45.45342    45.03333 
   9  16   9     0.51540    88.34543    89.83863 
   9  16  10     0.49852    50.39293    51.03444 
   9  16  11     0.48166    85.15315    87.47882 
   9  16  12     0.46502    22.28539    22.88328 
   9  16  13     0.44876    78.54690    78.85954 
   9  16  14     0.43298    29.66562    29.39349 
   9  16  15     0.41776   164.09064   159.69078 
   9  16  16     0.40314    40.24959    39.49952 
   9  16  17     0.38915   156.68172   156.59873 
   9  16  18     0.37579    89.68145    91.57768 
   9  17   1     0.58916   262.19867   260.40940 
   9  17   2     0.58502     1.36602     1.33608 
   9  17   3     0.57830   888.23461   876.91672 
   9  17   4     0.56928   446.11342   439.85405 
   9  17   5     0.55827   394.99830   386.67812 
   9  17   6     0.54565    52.07744    51.60010 
   9  17   7     0.53179    15.59505    15.41615 
   9  17   8     0.51703   168.38313   171.37561 
   9  17   9     0.50171     0.88828     0.90521 
   9  17  10     0.48609   424.68731   435.36576 
   9  17  11     0.47043   523.74189   544.41289 
   9  17  12     0.45489    20.48559    20.73127 
   9  17  13     0.43964   513.40630   513.31248 
   9  17  14     0.42477    22.54328    22.14463 
   9  17  15     0.41037   146.05541   142.00121 
   9  17  16     0.39649    26.67486    26.33643 
   9  17  17     0.38315     0.16368     0.16501 
   9  18   1     0.56779    83.41216    82.27308 
   9  18   2     0.56408     0.01771     0.01761 
   9  18   3     0.55805    24.69280    24.19188 
   9  18   4     0.54993   264.84194   261.84656 
   9  18   5     0.53999    65.25375    64.25544 
   9  18   6     0.52855     4.99687     4.93169 
   9  18   7     0.51592   445.64665   453.76657 
   9  18   8     0.50241     1.47030     1.49277 
   9  18   9     0.48831   909.76814   925.09332 
   9  18  10     0.47388    11.95679    12.18770 
   9  18  11     0.45933   790.21090   791.81208 
   9  18  12     0.44484     6.56957     6.57762 
   9  18  13     0.43054  1004.59764   990.74548 
   9  18  14     0.41655    94.25054    92.20207 
   9  18  15     0.40294   769.14152   752.91999 
   9  18  16     0.38978    61.69396    61.65822 
   9  18  17     0.37709   675.65280   683.68502 
   9  19   1     0.54755  1216.86652  1201.60281 
   9  19   2     0.54422   185.11013   183.51858 
   9  19   3     0.53880    16.82724    16.70515 
   9  19   4     0.53148    35.81254    35.32768 
   9  19   5     0.52250   164.83099   164.28847 
   9  19   6     0.51211   344.18367   345.34421 
   9  19   7     0.50059   260.36090   263.92174 
   9  19   8     0.48823   348.17901   353.83790 
   9  19   9     0.47526   641.90391   656.00741 
   9  19  10     0.46193    19.08390    19.30027 
   9  19  11     0.44842    69.60962    69.69820 
   9  19  12     0.43490    79.24155    79.18902 
   9  19  13     0.42151    65.99491    64.27625 
   9  19  14     0.40836     1.86750     1.83036 
   9  19  15     0.39551   131.92704   130.62462 
   9  19  16     0.38304    43.00037    43.34460 
   9  20   1     0.52840  2312.44419  2281.50936 
   9  20   2     0.52541   207.93365   208.17302 
   9  20   3     0.52053  1956.55396  1958.37752 
   9  20   4     0.51392     6.17853     6.21811 
   9  20   5     0.50578  1044.38992  1049.43573 
   9  20   6     0.49634   262.97331   267.56216 
   9  20   7     0.48583   702.27502   720.26011 
   9  20   8     0.47450    23.85763    24.27399 
   9  20   9     0.46258   447.09115   452.51627 
   9  20  10     0.45025    42.40181    43.01313 
   9  20  11     0.43772   181.87015   180.68402 
   9  20  12     0.42512   188.49481   185.40235 
   9  20  13     0.41259   307.15776   299.78595 
   9  20  14     0.40023     5.63692     5.53951 
   9  20  15     0.38811   302.67179   302.95296 
   9  20  16     0.37631    18.46380    18.73910 
   9  21   1     0.51029   231.71637   232.66480 
   9  21   2     0.50759    18.60063    18.84922 
   9  21   3     0.50319   548.72513   551.88465 
   9  21   4     0.49721   637.30634   643.77325 
   9  21   5     0.48983   399.60387   408.37375 
   9  21   6     0.48124   229.39224   235.01842 
   9  21   7     0.47164   144.44017   149.00186 
   9  21   8     0.46126   273.55118   274.49138 
   9  21   9     0.45028    91.61363    92.94131 
   9  21  10     0.43889   389.36274   389.16840 
   9  21  11     0.42725   637.49190   635.45556 
   9  21  12     0.41551     4.49223     4.39662 
   9  21  13     0.40379   153.15831   151.14936 
   9  21  14     0.39218     8.08074     8.07402 
   9  21  15     0.38076    61.50337    62.01660 
   9  22   1     0.49316     2.26498     2.32895 
   9  22   2     0.49072    20.64217    21.06010 
   9  22   3     0.48674   124.24688   126.53052 
   9  22   4     0.48132   497.33952   509.85890 
   9  22   5     0.47462    40.82673    41.55621 
   9  22   6     0.46679     0.74111     0.75790 
   9  22   7     0.45802   301.88971   303.10295 
   9  22   8     0.44849     0.52392     0.52486 
   9  22   9     0.43838   640.97810   640.07264 
   9  22  10     0.42785   147.48887   146.86291 
   9  22  11     0.41705   373.39086   364.08535 
   9  22  12     0.40611    44.18926    43.18271 
   9  22  13     0.39514   765.86004   760.68993 
   9  22  14     0.38424   179.20795   179.64505 
   9  22  15     0.37348   606.87982   639.82731 
   9  23   1     0.47696   278.92410   286.37465 
   9  23   2     0.47476   230.89252   235.19237 
   9  23   3     0.47115   106.81737   110.47962 
   9  23   4     0.46623   136.14373   139.43720 
   9  23   5     0.46013     0.36249     0.36384 
   9  23   6     0.45298   477.78137   485.24598 
   9  23   7     0.44496   378.38420   378.98632 
   9  23   8     0.43620   349.51956   346.67860 
   9  23   9     0.42688   599.99881   595.52789 
   9  23  10     0.41714    19.20910    18.72112 
   9  23  11     0.40711     1.30800     1.28334 
   9  23  12     0.39692    37.19442    36.61953 
   9  23  13     0.38666    61.82622    61.94151 
   9  23  14     0.37643    14.94310    15.14885 
   9  24   1     0.46164  1075.03209  1083.27578 
   9  24   2     0.45964   162.29083   162.68256 
   9  24   3     0.45636  1327.63984  1349.73855 
   9  24   4     0.45189   159.85777   161.68339 
   9  24   5     0.44632   487.63562   486.06668 
   9  24   6     0.43980   106.24157   106.17653 
   9  24   7     0.43244   510.39080   503.73468 
   9  24   8     0.42439     1.10546     1.08488 
   9  24   9     0.41579   469.82308   460.02652 
   9  24  10     0.40677   144.54673   141.51649 
   9  24  11     0.39746   117.50977   115.15249 
   9  24  12     0.38795   335.87072   336.56879 
   9  24  13     0.37836   387.64411   392.40085 
   9  25   1     0.44714     1.28323     1.28676 
   9  25   2     0.44532    32.21356    32.25246 
   9  25   3     0.44234    33.22891    33.31108 
   9  25   4     0.43826   446.33490   445.40119 
   9  25   5     0.43318   360.11188   356.23756 
   9  25   6     0.42720   228.99666   228.18511 
   9  25   7     0.42045   196.57783   191.03888 
   9  25   8     0.41304   206.21194   200.82271 
   9  25   9     0.40510   101.88477   100.42103 
   9  25  10     0.39675   207.23847   204.30079 
   9  25  11     0.38809   273.74153   274.03436 
   9  25  12     0.37923     2.13853     2.15228 
   9  26   1     0.43341    42.41221    41.86336 
   9  26   2     0.43175   192.24188   188.69639 
   9  26   3     0.42903   421.01872   415.87360 
   9  26   4     0.42531   204.74606   201.42751 
   9  26   5     0.42066   174.87591   169.89244 
   9  26   6     0.41518   206.06608   201.69822 
   9  26   7     0.40897   615.97222   600.45544 
   9  26   8     0.40215    57.80766    56.29773 
   9  26   9     0.39481  1017.67428  1013.85031 
   9  26  10     0.38706   125.78440   126.37956 
   9  26  11     0.37901   457.70257   461.17854 
   9  27   1     0.42040    44.47082    43.22461 
   9  27   2     0.41889    90.02961    87.84860 
   9  27   3     0.41640    47.74908    46.74712 
   9  27   4     0.41300    69.06550    67.27085 
   9  27   5     0.40874    27.23612    26.61775 
   9  27   6     0.40371   212.63417   209.72527 
   9  27   7     0.39799   208.46440   203.59011 
   9  27   8     0.39169   151.00518   150.73319 
   9  27   9     0.38490   247.32338   246.27342 
   9  27  10     0.37771     8.79747     8.91935 
   9  28   1     0.40807   921.04543   903.85026 
   9  28   2     0.40669   118.43161   115.88496 
   9  28   3     0.40441  1233.91442  1221.04851 
   9  28   4     0.40129   431.47528   423.70153 
   9  28   5     0.39738   244.59481   239.86451 
   9  28   6     0.39275    24.46389    24.40816 
   9  28   7     0.38748   258.87478   260.12865 
   9  28   8     0.38166     9.91179    10.01131 
   9  28   9     0.37537   262.66512   269.50650 
   9  29   1     0.39637    67.62909    66.79721 
   9  29   2     0.39510    18.26269    18.14649 
   9  29   3     0.39301    11.99863    11.96154 
   9  29   4     0.39015   145.86303   145.58435 
   9  29   5     0.38655    55.91491    55.95195 
   9  29   6     0.38228   116.82245   117.83306 
   9  29   7     0.37742   133.42599   135.14228 
   9  29   8     0.37204   104.69912   113.39812 
   9  30   1     0.38526     5.86885     5.83235 
   9  30   2     0.38409   179.46362   180.21585 
   9  30   3     0.38218   322.64460   325.52142 
   9  30   4     0.37954   224.16035   225.56078 
   9  30   5     0.37622   143.73326   146.00839 
   9  30   6     0.37229   194.58376   209.90431 
   9  31   1     0.37470   153.56097   158.67841 
   9  31   2     0.37363    29.90108    31.42423 
  10   0   0     0.88116    12.81065    12.84519 
  10   0   1     0.87652    49.86042    49.92871 
  10   0   2     0.86305     0.05752     0.05754 
  10   0   3     0.84192   271.94671   270.89777 
  10   0   4     0.81478    22.41707    22.13636 
  10   0   5     0.78347   563.11230   562.32963 
  10   0   6     0.74968    51.83789    52.16452 
  10   0   7     0.71489     0.38982     0.39102 
  10   0   8     0.68019     0.21375     0.21812 
  10   0   9     0.64638    75.59734    75.24211 
  10   0  10     0.61397   381.83744   377.31329 
  10   0  11     0.58327     2.93281     2.91683 
  10   0  12     0.55442   570.16750   559.95703 
  10   0  13     0.52745    45.20711    44.70609 
  10   0  14     0.50233   288.27891   292.91401 
  10   0  15     0.47898    52.68256    53.59283 
  10   0  16     0.45730  1284.76419  1297.31934 
  10   0  17     0.43717    15.92153    15.80110 
  10   0  18     0.41849   806.88654   785.91420 
  10   0  19     0.40113    22.89847    22.51382 
  10   0  20     0.38498   321.88261   320.35289 
  10   1   0     0.87900    30.33598    30.37941 
  10   1   1     0.87441     7.00009     7.00028 
  10   1   2     0.86103     4.55589     4.53320 
  10   1   3     0.84004    17.23342    16.96005 
  10   1   4     0.81308    10.54481    10.46278 
  10   1   5     0.78195    10.60304    10.56217 
  10   1   6     0.74836    33.10906    33.17062 
  10   1   7     0.71374    15.08064    15.21506 
  10   1   8     0.67920   121.30551   122.77297 
  10   1   9     0.64553   177.99576   177.37432 
  10   1  10     0.61325   117.11141   115.38833 
  10   1  11     0.58265     0.00269     0.00268 
  10   1  12     0.55388   420.15400   412.96451 
  10   1  13     0.52699    18.98177    18.79303 
  10   1  14     0.50193   415.73240   423.54938 
  10   1  15     0.47863   231.82922   235.97712 
  10   1  16     0.45700    78.74937    79.78072 
  10   1  17     0.43691     3.35653     3.33245 
  10   1  18     0.41826     0.69798     0.67941 
  10   1  19     0.40092     0.43360     0.42664 
  10   1  20     0.38480     0.01267     0.01262 
  10   2   0     0.87264  2207.44822  2198.34186 
  10   2   1     0.86814   508.66281   510.57706 
  10   2   2     0.85505   367.64631   367.27245 
  10   2   3     0.83449   258.49809   256.19167 
  10   2   4     0.80804  1168.82919  1172.50082 
  10   2   5     0.77746   354.14988   354.68130 
  10   2   6     0.74442  3579.78036  3591.24777 
  10   2   7     0.71032  1178.61337  1197.97266 
  10   2   8     0.67625   200.62239   204.11359 
  10   2   9     0.64300   149.21946   148.68007 
  10   2  10     0.61107  1379.87296  1353.46339 
  10   2  11     0.58078     1.40791     1.40214 
  10   2  12     0.55228   347.19092   345.80654 
  10   2  13     0.52561   151.99811   151.82108 
  10   2  14     0.50074    15.00749    15.21753 
  10   2  15     0.47760   403.33612   413.73025 
  10   2  16     0.45610   435.08290   442.15768 
  10   2  17     0.43612   127.62008   126.58481 
  10   2  18     0.41757    86.71276    84.40342 
  10   2  19     0.40031   155.25842   152.59370 
  10   2  20     0.38426    72.73288    72.89337 
  10   3   0     0.86234    49.95346    49.82085 
  10   3   1     0.85800    40.84986    40.69636 
  10   3   2     0.84535    64.23335    63.50503 
  10   3   3     0.82547   172.24336   171.32973 
  10   3   4     0.79984   135.48950   134.36254 
  10   3   5     0.77015    75.21567    75.35176 
  10   3   6     0.73800     3.61654     3.57565 
  10   3   7     0.70473     4.45790     4.51330 
  10   3   8     0.67142    24.78051    24.75503 
  10   3   9     0.63884   606.39776   600.67205 
  10   3  10     0.60750    38.29926    37.67956 
  10   3  11     0.57772     4.55510     4.48750 
  10   3  12     0.54964   305.58703   301.75093 
  10   3  13     0.52333     4.65241     4.67262 
  10   3  14     0.49877   133.45451   135.27149 
  10   3  15     0.47589   451.19930   462.64194 
  10   3  16     0.45461   163.29417   165.04397 
  10   3  17     0.43482     7.46571     7.45928 
  10   3  18     0.41642     0.91133     0.89213 
  10   3  19     0.39931     0.01500     0.01475 
  10   3  20     0.38337    10.74475    10.83241 
  10   4   0     0.84852   235.64518   232.46746 
  10   4   1     0.84438    27.36712    27.10810 
  10   4   2     0.83232   169.77014   169.81832 
  10   4   3     0.81331   967.29081   960.09253 
  10   4   4     0.78877   179.77703   178.71321 
  10   4   5     0.76026  1744.28132  1750.07313 
  10   4   6     0.72927    90.31814    92.03935 
  10   4   7     0.69712    49.12396    49.82820 
  10   4   8     0.66483    12.56156    12.79477 
  10   4   9     0.63316   198.75786   198.41074 
  10   4  10     0.60261   381.34720   380.14504 
  10   4  11     0.57350     7.79766     7.69496 
  10   4  12     0.54601   708.09110   702.64765 
  10   4  13     0.52019   112.10483   111.73346 
  10   4  14     0.49605   415.51198   424.01169 
  10   4  15     0.47352    59.94465    61.16238 
  10   4  16     0.45254  2214.49689  2254.03665 
  10   4  17     0.43301    31.66482    31.36669 
  10   4  18     0.41484  1535.43111  1503.47264 
  10   4  19     0.39791    42.52714    41.54460 
  10   4  20     0.38213   660.81512   666.78655 
  10   5   0     0.83168    78.75920    78.60069 
  10   5   1     0.82778    96.07709    95.64315 
  10   5   2     0.81641    66.27047    65.63408 
  10   5   3     0.79845   269.70634   267.51790 
  10   5   4     0.77519   426.56122   420.75147 
  10   5   5     0.74808   171.36855   171.54810 
  10   5   6     0.71850   464.51980   459.26315 
  10   5   7     0.68770   435.66239   443.03378 
  10   5   8     0.65664    14.53191    14.57697 
  10   5   9     0.62607   368.19710   364.90512 
  10   5  10     0.59649    78.71059    77.09070 
  10   5  11     0.56822    73.46803    72.45287 
  10   5  12     0.54144    40.34841    39.86038 
  10   5  13     0.51624   103.72526   105.74565 
  10   5  14     0.49262   366.98182   375.21127 
  10   5  15     0.47054    64.89625    67.43061 
  10   5  16     0.44994     0.32498     0.32914 
  10   5  17     0.43073    31.54967    31.12208 
  10   5  18     0.41282     0.77433     0.75474 
  10   5  19     0.39613     4.50022     4.44577 
  10   5  20     0.38055     6.71811     6.77583 
  10   6   0     0.81240   760.74669   753.61322 
  10   6   1     0.80877   534.95125   536.08731 
  10   6   2     0.79815     8.55157     8.48169 
  10   6   3     0.78135   608.58939   605.84231 
  10   6   4     0.75951   545.85284   546.47673 
  10   6   5     0.73395   805.64488   815.93556 
  10   6   6     0.70596  2934.46020  2976.07535 
  10   6   7     0.67668  1377.34094  1401.50796 
  10   6   8     0.64703   520.81088   517.01089 
  10   6   9     0.61772    55.44473    55.74042 
  10   6  10     0.58926  1857.59302  1845.58743 
  10   6  11     0.56196     5.41478     5.31871 
  10   6  12     0.53602   674.16289   667.38397 
  10   6  13     0.51153    59.76849    59.85587 
  10   6  14     0.48852    15.84237    16.13233 
  10   6  15     0.46696   350.11053   357.88453 
  10   6  16     0.44681   429.09320   429.40517 
  10   6  17     0.42798    78.35586    77.94427 
  10   6  18     0.41040    34.04330    33.10435 
  10   6  19     0.39399   125.89882   125.44801 
  10   6  20     0.37866    82.00568    82.85381 
  10   7   0     0.79126     3.24700     3.24290 
  10   7   1     0.78790    40.28533    40.07432 
  10   7   2     0.77807   891.79348   896.09671 
  10   7   3     0.76248   708.11882   717.11967 
  10   7   4     0.74215   933.80316   937.61711 
  10   7   5     0.71825   740.70789   731.76852 
  10   7   6     0.69195   157.63164   158.32423 
  10   7   7     0.66431    60.41377    61.50462 
  10   7   8     0.63619   750.45641   747.67484 
  10   7   9     0.60827  1424.20191  1393.73015 
  10   7  10     0.58104    15.66783    15.56868 
  10   7  11     0.55482    52.05556    51.24561 
  10   7  12     0.52981    98.84598    97.42720 
  10   7  13     0.50613     2.10497     2.12043 
  10   7  14     0.48381     0.49041     0.50407 
  10   7  15     0.46284   619.46164   627.74665 
  10   7  16     0.44319   200.12896   200.82857 
  10   7  17     0.42480    41.07908    40.35798 
  10   7  18     0.40759    11.02398    10.83381 
  10   7  19     0.39150     0.00009     0.00009 
  10   7  20     0.37645    45.62207    46.24304 
  10   8   0     0.76880   686.01710   689.45693 
  10   8   1     0.76572     2.84518     2.89607 
  10   8   2     0.75669   908.99777   908.50479 
  10   8   3     0.74233   814.13500   817.38639 
  10   8   4     0.72353   576.98282   579.73868 
  10   8   5     0.70133  1379.44058  1409.51777 
  10   8   6     0.67679   175.29457   178.35501 
  10   8   7     0.65085    75.15918    75.62464 
  10   8   8     0.62434     0.33537     0.33144 
  10   8   9     0.59789    98.97689    97.07452 
  10   8  10     0.57197   255.37332   253.54424 
  10   8  11     0.54690    16.23904    16.05106 
  10   8  12     0.52291   542.94137   543.65142 
  10   8  13     0.50010    97.28017    98.58493 
  10   8  14     0.47853   464.30836   472.66060 
  10   8  15     0.45822    16.92836    16.98865 
  10   8  16     0.43913  1831.62756  1831.04294 
  10   8  17     0.42122    15.21400    14.80070 
  10   8  18     0.40443  1504.26052  1488.55583 
  10   8  19     0.38869    36.88232    36.83568 
  10   8  20     0.37395   730.64566   763.13184 
  10   9   0     0.74552   526.38079   525.85572 
  10   9   1     0.74271   242.42263   243.46463 
  10   9   2     0.73446   272.82986   276.49430 
  10   9   3     0.72131   199.20819   199.79278 
  10   9   4     0.70402   734.73749   746.00955 
  10   9   5     0.68352   132.73949   134.49861 
  10   9   6     0.66074   905.13158   912.79320 
  10   9   7     0.63655   733.85833   729.20139 
  10   9   8     0.61168     0.00131     0.00129 
  10   9   9     0.58675   159.97692   156.33330 
  10   9  10     0.56219   105.91657   104.34228 
  10   9  11     0.53833   107.51401   106.77645 
  10   9  12     0.51540    14.98363    15.23687 
  10   9  13     0.49352   170.79250   176.06080 
  10   9  14     0.47276   491.83949   503.24747 
  10   9  15     0.45314     2.06223     2.09075 
  10   9  16     0.43465    20.14214    20.10369 
  10   9  17     0.41726    87.31700    85.05355 
  10   9  18     0.40092     1.40285     1.38033 
  10   9  19     0.38558     8.07767     8.02212 
  10  10   0     0.72186   389.43916   390.40389 
  10  10   1     0.71930   212.45147   211.58205 
  10  10   2     0.71180    23.36698    23.71584 
  10  10   3     0.69981   261.13683   266.33454 
  10  10   4     0.68399   363.40878   369.58555 
  10  10   5     0.66514   342.97643   349.17258 
  10  10   6     0.64410  1681.71768  1684.51896 
  10  10   7     0.62163   495.24504   491.67117 
  10  10   8     0.59841   460.26589   453.65986 
  10  10   9     0.57500    59.09844    58.02160 
  10  10  10     0.55183  1051.75270  1045.57851 
  10  10  11     0.52922    17.95988    17.73417 
  10  10  12     0.50738   404.01152   409.48247 
  10  10  13     0.48647    12.10776    12.37351 
  10  10  14     0.46655    26.54125    27.15694 
  10  10  15     0.44766   163.30377   163.62582 
  10  10  16     0.42981   194.90934   191.97137 
  10  10  17     0.41297    38.22886    37.23841 
  10  10  18     0.39711     5.36499     5.27337 
  10  10  19     0.38219    85.05318    85.80877 
  10  11   0     0.69815     0.00753     0.00765 
  10  11   1     0.69584   166.94335   168.16122 
  10  11   2     0.68904   894.15365   906.68159 
  10  11   3     0.67814   236.58849   239.43193 
  10  11   4     0.66372   500.33477   507.84143 
  10  11   5     0.64646   224.35582   223.22339 
  10  11   6     0.62709     5.54405     5.48717 
  10  11   7     0.60629    49.94790    49.85834 
  10  11   8     0.58469   288.05037   282.24330 
  10  11   9     0.56280   850.72447   841.82729 
  10  11  10     0.54102   106.62653   105.46568 
  10  11  11     0.51966    11.20276    11.10317 
  10  11  12     0.49894   338.76703   343.47402 
  10  11  13     0.47901     0.66743     0.67889 
  10  11  14     0.45996     0.46701     0.46858 
  10  11  15     0.44183   701.40718   703.77699 
  10  11  16     0.42464   324.38137   318.48783 
  10  11  17     0.40838    46.97755    46.03681 
  10  11  18     0.39303    12.53681    12.49749 
  10  11  19     0.37854     1.06769     1.07961 
  10  12   0     0.67469   206.11389   209.14059 
  10  12   1     0.67260     0.00943     0.00944 
  10  12   2     0.66646   480.27041   483.66613 
  10  12   3     0.65658   278.88768   279.85051 
  10  12   4     0.64346   385.45953   384.92273 
  10  12   5     0.62770   466.24438   464.54781 
  10  12   6     0.60992   195.29377   192.59787 
  10  12   7     0.59074    25.25621    25.17614 
  10  12   8     0.57070   187.99570   184.69872 
  10  12   9     0.55029     3.72514     3.69028 
  10  12  10     0.52988   511.31958   503.79768 
  10  12  11     0.50976    22.10807    22.23009 
  10  12  12     0.49016   877.97397   896.81704 
  10  12  13     0.47123    41.63438    43.03717 
  10  12  14     0.45306   943.09023   957.05354 
  10  12  15     0.43570     0.25572     0.25413 
  10  12  16     0.41919  1623.62985  1586.02462 
  10  12  17     0.40353     0.45760     0.45075 
  10  12  18     0.38869  1572.35787  1570.36760 
  10  12  19     0.37466    31.39770    32.45712 
  10  13   0     0.65169   210.84003   210.46644 
  10  13   1     0.64981   170.97414   172.17993 
  10  13   2     0.64426     5.02359     5.03232 
  10  13   3     0.63533     6.33131     6.33262 
  10  13   4     0.62342    50.89860    50.42518 
  10  13   5     0.60905    56.48280    55.56710 
  10  13   6     0.59277   187.74199   186.60946 
  10  13   7     0.57511   204.17229   200.30827 
  10  13   8     0.55658   398.95156   392.67473 
  10  13   9     0.53759     9.21665     9.11748 
  10  13  10     0.51851     9.74987     9.79597 
  10  13  11     0.49962    42.93607    43.50680 
  10  13  12     0.48113   126.23028   129.21953 
  10  13  13     0.46318   185.93432   189.10400 
  10  13  14     0.44589   814.96373   812.15397 
  10  13  15     0.42932     5.14718     5.07655 
  10  13  16     0.41350    20.32097    19.80880 
  10  13  17     0.39844   157.50853   153.90037 
  10  13  18     0.38414     7.49800     7.52524 
  10  14   0     0.62931   721.42519   721.85495 
  10  14   1     0.62762    68.74550    68.42500 
  10  14   2     0.62262   792.11195   783.28325 
  10  14   3     0.61454   275.18204   272.41565 
  10  14   4     0.60375   932.62245   926.89403 
  10  14   5     0.59067   378.20393   377.00740 
  10  14   6     0.57578  1341.51139  1318.64031 
  10  14   7     0.55956   216.96377   213.72686 
  10  14   8     0.54244   685.67369   676.49470 
  10  14   9     0.52482     2.95729     2.97773 
  10  14  10     0.50703   543.76386   551.01706 
  10  14  11     0.48932    16.95285    17.31971 
  10  14  12     0.47191   223.21198   229.92930 
  10  14  13     0.45494     1.87387     1.89694 
  10  14  14     0.43853    60.57264    60.51606 
  10  14  15     0.42273    36.51742    35.78939 
  10  14  16     0.40760    46.80121    45.99402 
  10  14  17     0.39316     6.67018     6.64693 
  10  14  18     0.37940     5.04824     5.07910 
  10  15   0     0.60767   253.87057   249.09140 
  10  15   1     0.60615   245.57394   245.18172 
  10  15   2     0.60164    76.63466    75.95820 
  10  15   3     0.59434    43.00791    42.16944 
  10  15   4     0.58456    11.13152    10.91679 
  10  15   5     0.57267    36.16864    35.70195 
  10  15   6     0.55907   261.65132   257.00700 
  10  15   7     0.54418   219.22398   217.31843 
  10  15   8     0.52840    76.55753    75.53333 
  10  15   9     0.51207   469.81670   471.33084 
  10  15  10     0.49551   301.01477   308.59139 
  10  15  11     0.47894     4.55695     4.63625 
  10  15  12     0.46258   469.30561   475.00014 
  10  15  13     0.44656     0.50242     0.50172 
  10  15  14     0.43101     1.01622     1.00183 
  10  15  15     0.41598   665.72852   652.09382 
  10  15  16     0.40154   385.39934   377.38016 
  10  15  17     0.38771    29.10909    29.21815 
  10  15  18     0.37450     6.98547     7.23479 
  10  16   0     0.58684     3.45845     3.38125 
  10  16   1     0.58547    86.56703    84.65120 
  10  16   2     0.58140   147.60173   146.11173 
  10  16   3     0.57481   485.87993   477.75056 
  10  16   4     0.56595    74.41031    73.21134 
  10  16   5     0.55513   685.92268   676.35496 
  10  16   6     0.54272     6.94237     6.85437 
  10  16   7     0.52907   345.76392   341.47343 
  10  16   8     0.51453   176.90538   178.91210 
  10  16   9     0.49942     7.80555     7.91160 
  10  16  10     0.48402   224.32255   230.29015 
  10  16  11     0.46854     5.52531     5.68098 
  10  16  12     0.45319   614.37234   622.56899 
  10  16  13     0.43810     8.54557     8.51733 
  10  16  14     0.42338  1085.38534  1062.45936 
  10  16  15     0.40912    23.92845    23.29320 
  10  16  16     0.39536  1094.21114  1084.72095 
  10  16  17     0.38213     4.71836     4.76095 
  10  17   0     0.56686    23.05401    22.79832 
  10  17   1     0.56563   199.17925   195.90004 
  10  17   2     0.56196   220.89118   216.96974 
  10  17   3     0.55600     0.53185     0.52417 
  10  17   4     0.54796     1.37771     1.36116 
  10  17   5     0.53813    13.45286    13.35397 
  10  17   6     0.52680   160.42632   158.93075 
  10  17   7     0.51429   306.42348   309.17385 
  10  17   8     0.50091   289.66035   293.91664 
  10  17   9     0.48694     9.15527     9.30252 
  10  17  10     0.47262     0.00380     0.00389 
  10  17  11     0.45818    62.90394    63.13174 
  10  17  12     0.44379    49.66144    49.74299 
  10  17  13     0.42959   190.06770   187.25313 
  10  17  14     0.41569   641.87784   628.35609 
  10  17  15     0.40217    16.59597    16.16206 
  10  17  16     0.38907    31.26163    31.23991 
  10  17  17     0.37645   147.62565   149.62973 
  10  18   0     0.54776   378.19826   373.53242 
  10  18   1     0.54664    34.68123    34.33096 
  10  18   2     0.54332  1130.61880  1118.86236 
  10  18   3     0.53793   720.80957   714.89192 
  10  18   4     0.53065  1203.37151  1181.75772 
  10  18   5     0.52170  1037.95405  1029.57322 
  10  18   6     0.51136  1346.77586  1348.53353 
  10  18   7     0.49989   290.54864   294.39067 
  10  18   8     0.48758  1758.42620  1782.59673 
  10  18   9     0.47466    95.46788    97.19003 
  10  18  10     0.46138   807.95628   811.44276 
  10  18  11     0.44791     3.68033     3.68220 
  10  18  12     0.43444   464.68731   462.60859 
  10  18  13     0.42110    36.39300    35.39042 
  10  18  14     0.40798   327.98011   321.98212 
  10  18  15     0.39517     0.00305     0.00303 
  10  18  16     0.38273    19.56522    19.71954 
  10  19   0     0.52952   135.69473   133.88741 
  10  19   1     0.52851    93.49312    92.26495 
  10  19   2     0.52551   132.23674   132.22828 
  10  19   3     0.52063   184.14982   184.48791 
  10  19   4     0.51402    71.01084    71.50109 
  10  19   5     0.50587   258.00893   259.38290 
  10  19   6     0.49643    37.02982    37.64081 
  10  19   7     0.48592     6.92943     7.10670 
  10  19   8     0.47458   267.16390   271.90277 
  10  19   9     0.46265   552.75613   559.52553 
  10  19  10     0.45032    73.10563    74.16464 
  10  19  11     0.43778    33.53337    33.33040 
  10  19  12     0.42517   188.65225   185.57270 
  10  19  13     0.41264     0.69121     0.67442 
  10  19  14     0.40027     9.67785     9.51121 
  10  19  15     0.38815   452.82652   453.11602 
  10  19  16     0.37634   228.34358   231.66665 
  10  20   0     0.51214    68.51237    68.75322 
  10  20   1     0.51123   239.95068   240.30444 
  10  20   2     0.50851   665.49893   673.48693 
  10  20   3     0.50408   466.24895   468.26811 
  10  20   4     0.49807   187.37643   189.42421 
  10  20   5     0.49065   591.05674   603.15514 
  10  20   6     0.48202     1.96830     2.02687 
  10  20   7     0.47238   688.65896   706.69731 
  10  20   8     0.46195   161.22531   163.09225 
  10  20   9     0.45092     1.14782     1.16021 
  10  20  10     0.43948    20.09850    20.09759 
  10  20  11     0.42780     0.76482     0.76181 
  10  20  12     0.41602   267.99542   262.52317 
  10  20  13     0.40425     0.50954     0.50409 
  10  20  14     0.39260  1011.59300  1009.74750 
  10  20  15     0.38115    90.85219    91.67788 
  10  21   0     0.49560   252.59503   258.76984 
  10  21   1     0.49477   191.45452   197.38493 
  10  21   2     0.49231    11.16138    11.38215 
  10  21   3     0.48829    37.51322    38.13779 
  10  21   4     0.48282   138.18644   142.79201 
  10  21   5     0.47605    34.88496    35.78667 
  10  21   6     0.46815   429.28205   438.92614 
  10  21   7     0.45931   460.92387   461.87066 
  10  21   8     0.44970    46.49052    46.98515 
  10  21   9     0.43951     3.60379     3.60358 
  10  21  10     0.42890    17.21313    17.01524 
  10  21  11     0.41802    77.37743    75.29672 
  10  21  12     0.40700     5.57997     5.47099 
  10  21  13     0.39597   136.22225   134.58931 
  10  21  14     0.38500   325.33036   323.73843 
  10  21  15     0.37418    16.84480    17.52306 
  10  22   0     0.47986    15.42142    15.63398 
  10  22   1     0.47911     2.26259     2.30047 
  10  22   2     0.47687   559.97746   574.90224 
  10  22   3     0.47322   451.91834   461.42174 
  10  22   4     0.46823   605.20207   619.42330 
  10  22   5     0.46205   680.32939   688.55494 
  10  22   6     0.45482   625.05833   632.28008 
  10  22   7     0.44670    28.67654    28.67126 
  10  22   8     0.43784  1934.58188  1923.88554 
  10  22   9     0.42842   117.98501   116.97020 
  10  22  10     0.41857   636.13726   619.80814 
  10  22  11     0.40844    10.74643    10.52801 
  10  22  12     0.39815   475.72804   464.52899 
  10  22  13     0.38780   103.60715   103.93661 
  10  22  14     0.37748   546.62522   553.79338 
  10  23   0     0.46490    23.37495    23.97645 
  10  23   1     0.46421    31.16032    31.73495 
  10  23   2     0.46218   622.28064   630.02757 
  10  23   3     0.45885   113.57129   113.89969 
  10  23   4     0.45430   323.30763   326.71774 
  10  23   5     0.44865   179.23405   179.80138 
  10  23   6     0.44202     4.63203     4.64512 
  10  23   7     0.43455     1.48724     1.48292 
  10  23   8     0.42639   185.79272   183.05871 
  10  23   9     0.41767   319.36591   310.82438 
  10  23  10     0.40853    50.71898    49.65645 
  10  23  11     0.39910    46.74708    45.91927 
  10  23  12     0.38948   128.33385   128.31771 
  10  23  13     0.37978     8.78570     8.84831 
  10  24   0     0.45068   126.64360   128.30946 
  10  24   1     0.45005   245.71618   249.05585 
  10  24   2     0.44820  1232.61806  1232.79236 
  10  24   3     0.44516   107.53885   107.73012 
  10  24   4     0.44100   478.08139   478.82296 
  10  24   5     0.43583    91.82648    91.18095 
  10  24   6     0.42974    27.57118    27.15607 
  10  24   7     0.42287   405.24795   396.88928 
  10  24   8     0.41534   577.58872   565.28830 
  10  24   9     0.40727    61.22445    60.12169 
  10  24  10     0.39878    70.24280    68.79996 
  10  24  11     0.38999    14.01723    13.99868 
  10  24  12     0.38100   352.10610   355.13886 
  10  25   0     0.43715   319.20135   316.79609 
  10  25   1     0.43659    42.39960    42.08118 
  10  25   2     0.43489   138.38225   138.29067 
  10  25   3     0.43211     0.35384     0.34762 
  10  25   4     0.42831   175.24887   173.88077 
  10  25   5     0.42356     0.01176     0.01153 
  10  25   6     0.41797   213.63553   207.89146 
  10  25   7     0.41164    97.08421    95.20210 
  10  25   8     0.40468    45.13152    44.63176 
  10  25   9     0.39721     0.65224     0.64060 
  10  25  10     0.38932     5.50298     5.50172 
  10  25  11     0.38113    38.41679    38.76348 
  10  25  12     0.37273    34.53100    36.94180 
  10  26   0     0.42430     8.36335     8.20756 
  10  26   1     0.42378    43.51567    42.67966 
  10  26   2     0.42223   692.48979   678.24775 
  10  26   3     0.41968   256.38304   250.31029 
  10  26   4     0.41620   481.98622   472.15865 
  10  26   5     0.41184   390.03154   382.37874 
  10  26   6     0.40669   244.04647   238.80845 
  10  26   7     0.40085    20.66855    20.33908 
  10  26   8     0.39442  1452.73297  1449.13000 
  10  26   9     0.38749    77.86256    78.23786 
  10  26  10     0.38016   259.76084   262.01880 
  10  26  11     0.37252    38.64309    41.50165 
  10  27   0     0.41207    16.83661    16.48925 
  10  27   1     0.41160    10.12178     9.92539 
  10  27   2     0.41018   206.44767   200.53975 
  10  27   3     0.40784     1.05736     1.03857 
  10  27   4     0.40464    97.00901    95.95139 
  10  27   5     0.40063     4.29011     4.22022 
  10  27   6     0.39589     0.05805     0.05736 
  10  27   7     0.39050     0.69960     0.69745 
  10  27   8     0.38454     8.01247     8.00317 
  10  27   9     0.37811    63.77255    64.63233 
  10  28   0     0.40044    29.05466    28.56455 
  10  28   1     0.40000   308.24686   302.96444 
  10  28   2     0.39870   857.63552   839.44363 
  10  28   3     0.39655    96.23933    94.99287 
  10  28   4     0.39361   345.08721   343.65376 
  10  28   5     0.38991    65.61107    65.54282 
  10  28   6     0.38554    24.29908    24.13247 
  10  28   7     0.38055   466.08495   470.08976 
  10  28   8     0.37503   760.36075   782.99430 
  10  29   0     0.38937    24.51510    24.51028 
  10  29   1     0.38896     0.02924     0.02921 
  10  29   2     0.38776    10.91576    10.95338 
  10  29   3     0.38579     1.78805     1.77668 
  10  29   4     0.38308    14.66657    14.78451 
  10  29   5     0.37967     3.05529     3.07564 
  10  29   6     0.37563    11.42994    11.69452 
  10  30   0     0.37882    34.97313    35.29037 
  10  30   1     0.37845    35.05165    35.46416 
  10  30   2     0.37734   948.14017   960.05702 
  10  30   3     0.37552   375.83645   384.97782 
  10  30   4     0.37302   664.23550   706.72174 
  11   0   1     0.79757   968.11032   960.25487 
  11   0   2     0.78738   106.34278   106.05159 
  11   0   3     0.77123  1630.24262  1635.15621 
  11   0   4     0.75021     1.40078     1.40930 
  11   0   5     0.72555   447.33968   450.37542 
  11   0   6     0.69847   267.10757   270.97643 
  11   0   7     0.67007   873.76057   872.21859 
  11   0   8     0.64125    72.81119    72.43033 
  11   0   9     0.61269   656.55144   646.75140 
  11   0  10     0.58488     4.94056     4.83538 
  11   0  11     0.55816     4.11235     4.02716 
  11   0  12     0.53272   428.23712   425.66477 
  11   0  13     0.50866   277.21705   280.37346 
  11   0  14     0.48602    48.76586    50.00886 
  11   0  15     0.46478   137.39426   140.72747 
  11   0  16     0.44489    36.66223    36.71395 
  11   0  17     0.42629     5.11877     5.03851 
  11   0  18     0.40892   104.85051   102.27344 
  11   0  19     0.39267   585.63029   584.43649 
  11   0  20     0.37749    86.05030    87.18007 
  11   1   1     0.79597   442.55482   440.00222 
  11   1   2     0.78584   124.55425   123.00541 
  11   1   3     0.76979     3.76779     3.77094 
  11   1   4     0.74888   236.77993   237.74136 
  11   1   5     0.72435     0.26321     0.26549 
  11   1   6     0.69740    10.96821    11.14598 
  11   1   7     0.66913    59.92171    60.17421 
  11   1   8     0.64042    86.34844    85.81935 
  11   1   9     0.61196   122.29153   120.53292 
  11   1  10     0.58425     0.00026     0.00025 
  11   1  11     0.55761     9.90415     9.73338 
  11   1  12     0.53224   164.76621   163.48249 
  11   1  13     0.50824    81.02658    82.06052 
  11   1  14     0.48566     3.09663     3.17534 
  11   1  15     0.46446   312.51090   318.89269 
  11   1  16     0.44461     4.97348     4.97584 
  11   1  17     0.42605   343.66250   337.86106 
  11   1  18     0.40870     1.32775     1.29808 
  11   1  19     0.39248   120.86940   120.69375 
  11   1  20     0.37732    11.16096    11.30027 
  11   2   1     0.79124    88.19655    88.08596 
  11   2   2     0.78129     3.82691     3.80962 
  11   2   3     0.76551  1221.13131  1242.27925 
  11   2   4     0.74494   323.68892   323.88679 
  11   2   5     0.72078   381.39765   382.78770 
  11   2   6     0.69421   104.67594   105.09357 
  11   2   7     0.66631   133.07393   134.20435 
  11   2   8     0.63795   108.69952   107.49466 
  11   2   9     0.60981  1037.25094  1023.35002 
  11   2  10     0.58237   207.11044   205.70736 
  11   2  11     0.55598    26.50310    26.12221 
  11   2  12     0.53082   156.67678   153.96046 
  11   2  13     0.50701  2328.92920  2359.84391 
  11   2  14     0.48457   415.01323   425.09282 
  11   2  15     0.46351   766.98328   781.25647 
  11   2  16     0.44378    97.89231    98.05805 
  11   2  17     0.42532   334.37350   328.95100 
  11   2  18     0.40805    10.82800    10.62653 
  11   2  19     0.39191  1874.21409  1872.18927 
  11   2  20     0.37681     2.50393     2.53365 
  11   3   1     0.78353    50.25775    50.19135 
  11   3   2     0.77387    88.16024    88.34700 
  11   3   3     0.75852    32.65416    32.62594 
  11   3   4     0.73850  1012.49880  1005.27030 
  11   3   5     0.71494   158.48734   158.95999 
  11   3   6     0.68899    34.19309    34.67114 
  11   3   7     0.66169   182.76678   184.62794 
  11   3   8     0.63389   149.04966   148.64761 
  11   3   9     0.60626   192.76339   192.43571 
  11   3  10     0.57928    84.15807    83.41757 
  11   3  11     0.55328     7.22645     7.15051 
  11   3  12     0.52847   427.99335   422.33852 
  11   3  13     0.50496   126.14290   126.95207 
  11   3  14     0.48279    11.82166    12.21687 
  11   3  15     0.46195   261.43633   264.46614 
  11   3  16     0.44241    16.45062    16.49171 
  11   3  17     0.42411   281.42094   276.18897 
  11   3  18     0.40699    45.86051    44.95997 
  11   3  19     0.39096   196.47898   195.78330 
  11   3  20     0.37597    75.99727    77.43709 
  11   4   1     0.77312   361.68230   361.60258 
  11   4   2     0.76383   145.78414   146.67726 
  11   4   3     0.74906  1332.53494  1338.94843 
  11   4   4     0.72976     0.38644     0.39505 
  11   4   5     0.70700   425.50023   432.23138 
  11   4   6     0.68188   321.49496   326.26466 
  11   4   7     0.65538  1507.14357  1507.47925 
  11   4   8     0.62834    60.90416    61.04464 
  11   4   9     0.60140  1388.67287  1373.72707 
  11   4  10     0.57503     0.73080     0.71727 
  11   4  11     0.54958     2.82764     2.79153 
  11   4  12     0.52524   697.52008   699.64854 
  11   4  13     0.50214   583.68067   593.99770 
  11   4  14     0.48032   105.77694   107.50396 
  11   4  15     0.45979   269.83325   270.60244 
  11   4  16     0.44051    90.76853    90.63742 
  11   4  17     0.42244     6.07977     5.95991 
  11   4  18     0.40551   211.63574   207.67537 
  11   4  19     0.38965  1020.02714  1019.73288 
  11   4  20     0.37480   131.22230   135.45851 
  11   5   1     0.76032    43.12406    43.27282 
  11   5   2     0.75148   793.49507   799.20961 
  11   5   3     0.73740   719.39980   710.85689 
  11   5   4     0.71896   518.54593   514.65671 
  11   5   5     0.69717   313.16016   317.77414 
  11   5   6     0.67305   629.85362   632.20335 
  11   5   7     0.64753   592.44616   588.76491 
  11   5   8     0.62141   460.29150   457.48626 
  11   5   9     0.59531   461.11856   455.64651 
  11   5  10     0.56971     8.69006     8.58467 
  11   5  11     0.54493     1.95347     1.93565 
  11   5  12     0.52118    19.54933    19.54737 
  11   5  13     0.49858    16.65512    16.87214 
  11   5  14     0.47721    15.43534    15.84963 
  11   5  15     0.45705   318.39592   322.38039 
  11   5  16     0.43810     9.22937     9.19930 
  11   5  17     0.42031   374.91601   364.57582 
  11   5  18     0.40362    50.58972    49.86954 
  11   5  19     0.38798    62.62803    62.74600 
  11   5  20     0.37331     8.62429     9.12337 
  11   6   1     0.74551   634.68906   634.05726 
  11   6   2     0.73717     0.60497     0.59846 
  11   6   3     0.72387  3063.59623  3082.85931 
  11   6   4     0.70640   100.33226   101.98308 
  11   6   5     0.68570     0.17133     0.17377 
  11   6   6     0.66271    10.18481    10.28346 
  11   6   7     0.63830   265.29204   262.50470 
  11   6   8     0.61324    13.10601    12.91307 
  11   6   9     0.58812   868.02797   860.57812 
  11   6  10     0.56340    79.90979    79.22435 
  11   6  11     0.53939    49.00476    48.38455 
  11   6  12     0.51633   122.27438   124.69798 
  11   6  13     0.49434  1941.06197  2005.84758 
  11   6  14     0.47348   365.48137   372.93933 
  11   6  15     0.45377   812.34140   820.73839 
  11   6  16     0.43521   120.72760   120.47720 
  11   6  17     0.41776   448.29427   436.27491 
  11   6  18     0.40136    24.68234    24.21993 
  11   6  19     0.38597  1674.23194  1665.34202 
  11   7   1     0.72907   401.83160   408.93867 
  11   7   2     0.72126   108.78790   109.11594 
  11   7   3     0.70879   571.19647   577.29574 
  11   7   4     0.69237  2403.16231  2409.50742 
  11   7   5     0.67284  1054.38590  1056.50871 
  11   7   6     0.65108   166.32265   166.93432 
  11   7   7     0.62790   539.77859   539.11149 
  11   7   8     0.60399   277.22806   275.60377 
  11   7   9     0.57995   314.56056   312.64599 
  11   7  10     0.55620   304.52539   299.92911 
  11   7  11     0.53307    70.21332    69.81944 
  11   7  12     0.51077   690.33717   692.72250 
  11   7  13     0.48945   169.86589   173.57938 
  11   7  14     0.46918    11.31398    11.74771 
  11   7  15     0.44999   211.60911   214.39319 
  11   7  16     0.43187    21.56463    21.16378 
  11   7  17     0.41480   218.54438   214.00200 
  11   7  18     0.39873   185.74802   181.86198 
  11   7  19     0.38363   274.66800   276.77577 
  11   8   1     0.71139    11.64760    11.83575 
  11   8   2     0.70413    29.18117    29.61843 
  11   8   3     0.69251   340.01812   340.87219 
  11   8   4     0.67717    29.06635    29.55354 
  11   8   5     0.65887   165.89453   168.32806 
  11   8   6     0.63840    56.30865    55.72970 
  11   8   7     0.61650   896.11980   892.25823 
  11   8   8     0.59383     1.96945     1.93608 
  11   8   9     0.57093   896.83635   881.51794 
  11   8  10     0.54823     0.36175     0.35753 
  11   8  11     0.52604    13.50546    13.44131 
  11   8  12     0.50458   452.84745   455.66161 
  11   8  13     0.48400   374.81119   384.82900 
  11   8  14     0.46437   130.83578   133.38209 
  11   8  15     0.44574   206.16428   205.68712 
  11   8  16     0.42811   108.13596   107.46246 
  11   8  17     0.41146     0.43773     0.42909 
  11   8  18     0.39577   156.64619   154.85799 
  11   8  19     0.38099   749.94212   756.38007 
  11   9   1     0.69283   118.16098   118.48484 
  11   9   2     0.68612   917.95221   928.96767 
  11   9   3     0.67535   936.03003   950.47750 
  11   9   4     0.66110   120.38321   121.47995 
  11   9   5     0.64404   239.11909   239.49295 
  11   9   6     0.62488   699.17816   692.46904 
  11   9   7     0.60430   532.31600   529.93516 
  11   9   8     0.58290   374.33994   373.10629 
  11   9   9     0.56120   357.11119   349.69013 
  11   9  10     0.53960   100.03060    98.56939 
  11   9  11     0.51840    29.79175    29.98666 
  11   9  12     0.49783    12.17541    12.29995 
  11   9  13     0.47803     8.92363     9.11206 
  11   9  14     0.45909    44.15136    44.25857 
  11   9  15     0.44106   340.80535   341.48549 
  11   9  16     0.42396    26.53810    26.04115 
  11   9  17     0.40777   393.63976   386.73340 
  11   9  18     0.39248   178.91513   178.65430 
  11   9  19     0.37805    36.61166    37.11128 
  11  10   1     0.67371   396.48347   400.69541 
  11  10   2     0.66753     2.62590     2.64083 
  11  10   3     0.65761  1731.07927  1738.33074 
  11  10   4     0.64443    11.51748    11.53264 
  11  10   5     0.62860    60.02005    60.18934 
  11  10   6     0.61074     0.52127     0.51127 
  11  10   7     0.59148   427.51722   426.57367 
  11  10   8     0.57138     2.34555     2.31776 
  11  10   9     0.55089  1037.37026  1032.21440 
  11  10  10     0.53042    44.04997    43.26630 
  11  10  11     0.51024   381.22888   382.79171 
  11  10  12     0.49059   146.28669   149.30559 
  11  10  13     0.47161  1770.42585  1826.61768 
  11  10  14     0.45339   280.97253   284.19312 
  11  10  15     0.43600   935.94955   928.64568 
  11  10  16     0.41946   112.81067   110.20212 
  11  10  17     0.40377   599.95344   591.99734 
  11  10  18     0.38891    28.30147    28.27247 
  11  10  19     0.37486  1175.36925  1212.61229 
  11  11   1     0.65431     5.17056     5.16100 
  11  11   2     0.64865     9.52073     9.53941 
  11  11   3     0.63954     5.73509     5.67785 
  11  11   4     0.62739  1394.46903  1384.06545 
  11  11   5     0.61276   332.51804   327.52426 
  11  11   6     0.59618     7.67074     7.54492 
  11  11   7     0.57823    96.15677    94.91097 
  11  11   8     0.55940    22.81703    22.46178 
  11  11   9     0.54014    55.15336    54.34739 
  11  11  10     0.52079   279.48608   280.23594 
  11  11  11     0.50166    33.38719    34.02153 
  11  11  12     0.48295   784.25081   809.93139 
  11  11  13     0.46481   273.99835   280.74286 
  11  11  14     0.44734    32.11908    32.21751 
  11  11  15     0.43061   197.77034   195.06536 
  11  11  16     0.41465    60.13792    58.89266 
  11  11  17     0.39947   185.78429   182.76082 
  11  11  18     0.38507   250.86528   249.54538 
  11  12   1     0.63488   971.71369   971.06187 
  11  12   2     0.62971    18.94795    18.94608 
  11  12   3     0.62135  1037.85094  1031.71305 
  11  12   4     0.61020     2.39843     2.36072 
  11  12   5     0.59671   723.38437   706.72933 
  11  12   6     0.58137    63.98571    63.35516 
  11  12   7     0.56469   792.11820   786.56553 
  11  12   8     0.54711    24.05932    23.76478 
  11  12   9     0.52905   475.98919   470.09263 
  11  12  10     0.51083    25.47638    25.55728 
  11  12  11     0.49274    39.30107    40.23524 
  11  12  12     0.47497   302.07277   308.15419 
  11  12  13     0.45768   157.90580   158.82762 
  11  12  14     0.44098   166.25379   166.48375 
  11  12  15     0.42493   173.28667   170.33815 
  11  12  16     0.40957    97.77993    94.96362 
  11  12  17     0.39493    54.65825    54.40037 
  11  12  18     0.38099    63.37401    63.91822 
  11  13   1     0.61561   341.38360   336.82638 
  11  13   2     0.61088   575.15444   563.94751 
  11  13   3     0.60325    16.32393    16.26255 
  11  13   4     0.59303    46.60152    46.23101 
  11  13   5     0.58062    26.97708    26.88930 
  11  13   6     0.56646   299.87761   296.19507 
  11  13   7     0.55100   108.74381   108.26593 
  11  13   8     0.53463   114.72360   114.59022 
  11  13   9     0.51774   128.53532   130.31148 
  11  13  10     0.50063   273.06085   276.81877 
  11  13  11     0.48356    78.35542    80.63476 
  11  13  12     0.46674    88.27448    90.28452 
  11  13  13     0.45030     7.27710     7.38262 
  11  13  14     0.43437    43.58332    43.33911 
  11  13  15     0.41900   331.57608   323.70937 
  11  13  16     0.40426    21.88778    21.65414 
  11  13  17     0.39015   389.18180   388.42503 
  11  13  18     0.37670   331.30827   335.33982 
  11  14   1     0.59664     1.10868     1.08384 
  11  14   2     0.59234    35.73344    35.61876 
  11  14   3     0.58537   142.96041   139.78544 
  11  14   4     0.57602    76.70641    75.58393 
  11  14   5     0.56463    11.49539    11.41951 
  11  14   6     0.55158   127.92128   127.21973 
  11  14   7     0.53727   148.18637   146.15968 
  11  14   8     0.52207    79.37357    78.71689 
  11  14   9     0.50630   545.74619   550.67276 
  11  14  10     0.49027    82.63345    84.39311 
  11  14  11     0.47421   641.89318   653.34425 
  11  14  12     0.45831   240.03451   240.85470 
  11  14  13     0.44272  1118.87866  1122.23038 
  11  14  14     0.42755   199.85072   199.31671 
  11  14  15     0.41287   845.12945   823.53275 
  11  14  16     0.39874    96.99586    94.97301 
  11  14  17     0.38519   706.62790   702.45676 
  11  14  18     0.37222    33.02916    35.66798 
  11  15   1     0.57810   283.02702   279.25582 
  11  15   2     0.57419    30.36051    29.99105 
  11  15   3     0.56784   232.30251   229.12774 
  11  15   4     0.55929  1254.96162  1234.54948 
  11  15   5     0.54884    74.02896    73.12345 
  11  15   6     0.53684    13.10338    12.89445 
  11  15   7     0.52362    30.74534    30.91670 
  11  15   8     0.50951     4.70524     4.73895 
  11  15   9     0.49483    38.78172    39.96422 
  11  15  10     0.47983   274.30200   278.05591 
  11  15  11     0.46474    63.69116    65.20906 
  11  15  12     0.44974   717.34388   725.29742 
  11  15  13     0.43498   219.40178   219.20979 
  11  15  14     0.42057    24.89957    24.19078 
  11  15  15     0.40658   148.04282   144.78463 
  11  15  16     0.39306    62.21511    62.01328 
  11  15  17     0.38006   153.67900   154.97553 
  11  16   1     0.56008  1512.98942  1491.76940 
  11  16   2     0.55652    37.68302    37.08960 
  11  16   3     0.55073  1061.45532  1055.08092 
  11  16   4     0.54292   164.86196   162.90181 
  11  16   5     0.53335  1663.90397  1655.12930 
  11  16   6     0.52231   146.57129   145.74007 
  11  16   7     0.51011  1204.57970  1209.54407 
  11  16   8     0.49705   111.71793   112.93835 
  11  16   9     0.48338   666.43829   686.43225 
  11  16  10     0.46937   134.98139   140.38061 
  11  16  11     0.45522   447.07549   453.42404 
  11  16  12     0.44110   192.18226   192.62746 
  11  16  13     0.42715   162.53801   161.89895 
  11  16  14     0.41348   229.23910   223.43436 
  11  16  15     0.40016   246.92529   242.65716 
  11  16  16     0.38725   107.27152   107.82573 
  11  16  17     0.37480   247.15844   255.12671 
  11  17   1     0.54263   237.74824   234.67040 
  11  17   2     0.53939   833.06915   822.53255 
  11  17   3     0.53412    29.64058    29.52530 
  11  17   4     0.52698     1.55113     1.53572 
  11  17   5     0.51822     0.06868     0.06931 
  11  17   6     0.50808   717.46710   726.73049 
  11  17   7     0.49683   253.19852   256.35286 
  11  17   8     0.48473   235.38078   241.07868 
  11  17   9     0.47203   252.45378   259.83161 
  11  17  10     0.45896   212.22394   212.79618 
  11  17  11     0.44570    10.30670    10.28585 
  11  17  12     0.43243   115.04253   113.51951 
  11  17  13     0.41926     0.21795     0.21291 
  11  17  14     0.40630    73.78907    72.10453 
  11  17  15     0.39365   229.99706   229.04142 
  11  17  16     0.38134    41.53906    41.94247 
  11  18   1     0.52580   300.87492   299.96907 
  11  18   2     0.52285    63.51010    63.55940 
  11  18   3     0.51804    95.03106    96.09968 
  11  18   4     0.51153    26.11565    26.15367 
  11  18   5     0.50350   162.45360   163.13823 
  11  18   6     0.49418   152.63241   157.74604 
  11  18   7     0.48381    42.03513    43.20505 
  11  18   8     0.47262    77.49521    79.37050 
  11  18   9     0.46083   117.48340   117.88719 
  11  18  10     0.44864    52.75085    52.91392 
  11  18  11     0.43623   661.42794   656.04740 
  11  18  12     0.42376   314.07776   308.02578 
  11  18  13     0.41135   466.92498   457.46230 
  11  18  14     0.39909   151.14676   148.46418 
  11  18  15     0.38708   676.12279   679.36067 
  11  18  16     0.37536   108.85748   111.70073 
  11  19   1     0.50961    10.36344    10.43096 
  11  19   2     0.50692     3.86565     3.91603 
  11  19   3     0.50253     5.90486     5.98630 
  11  19   4     0.49658  1725.43455  1750.99026 
  11  19   5     0.48923   432.10264   441.35617 
  11  19   6     0.48067    65.28566    66.54466 
  11  19   7     0.47111   234.17100   242.26511 
  11  19   8     0.46076    57.71464    57.92320 
  11  19   9     0.44981   149.36233   151.10918 
  11  19  10     0.43846   259.22783   258.92785 
  11  19  11     0.42685   125.58288   124.59074 
  11  19  12     0.41515   569.05211   557.01295 
  11  19  13     0.40345   106.46477   104.81009 
  11  19  14     0.39187     0.60145     0.60073 
  11  19  15     0.38048    92.36755    93.17277 
  11  20   1     0.49406   524.69508   542.17665 
  11  20   2     0.49161     3.02626     3.07904 
  11  20   3     0.48761   139.97475   141.90679 
  11  20   4     0.48216    51.46345    53.04982 
  11  20   5     0.47542  1343.06291  1373.83273 
  11  20   6     0.46755     0.15328     0.15630 
  11  20   7     0.45874   798.13798   800.53750 
  11  20   8     0.44917    15.20850    15.30370 
  11  20   9     0.43901   440.97413   440.79051 
  11  20  10     0.42844   112.39479   111.41545 
  11  20  11     0.41759   860.51168   837.57080 
  11  20  12     0.40661    73.97758    72.35979 
  11  20  13     0.39560    91.68411    90.72066 
  11  20  14     0.38467   280.08241   279.39799 
  11  20  15     0.37388   256.71346   268.49710 
  11  21   1     0.47916    56.01791    56.93900 
  11  21   2     0.47692   707.73294   726.62113 
  11  21   3     0.47326   399.84166   408.19376 
  11  21   4     0.46828    36.54054    37.42176 
  11  21   5     0.46210   174.88341   177.03800 
  11  21   6     0.45487   737.80784   746.53831 
  11  21   7     0.44674   423.08451   423.15519 
  11  21   8     0.43788   230.23868   229.04305 
  11  21   9     0.42846   272.75560   270.33757 
  11  21  10     0.41861   129.28363   125.98368 
  11  21  11     0.40848     0.01568     0.01536 
  11  21  12     0.39818    70.09678    68.44858 
  11  21  13     0.38783     0.03403     0.03413 
  11  21  14     0.37751    73.96186    74.93939 
  11  22   1     0.46489   941.69322   965.87515 
  11  22   2     0.46285     6.78625     6.87753 
  11  22   3     0.45950   158.09826   158.43498 
  11  22   4     0.45494    73.40376    74.30644 
  11  22   5     0.44926   876.59025   882.58888 
  11  22   6     0.44261     3.94438     3.95534 
  11  22   7     0.43511   230.20634   229.88727 
  11  22   8     0.42692     0.01237     0.01229 
  11  22   9     0.41817   198.98718   193.66267 
  11  22  10     0.40900     0.25394     0.24749 
  11  22  11     0.39953  1326.15266  1304.58185 
  11  22  12     0.38988   274.98018   274.72478 
  11  22  13     0.38015   360.49489   363.62102 
  11  23   1     0.45125   111.71954   112.68923 
  11  23   2     0.44938     0.67282     0.67797 
  11  23   3     0.44632    88.45154    88.16412 
  11  23   4     0.44213   806.84600   808.94842 
  11  23   5     0.43691   391.66938   388.85800 
  11  23   6     0.43079    25.78967    25.43892 
  11  23   7     0.42386   214.67570   210.61194 
  11  23   8     0.41628    13.08493    12.81577 
  11  23   9     0.40815   106.34143   104.32011 
  11  23  10     0.39961    95.52286    93.96218 
  11  23  11     0.39077    51.75464    51.57017 
  11  23  12     0.38173   325.57512   328.81964 
  11  23  13     0.37258    71.92515    77.16275 
  11  24   1     0.43821   683.81435   682.19021 
  11  24   2     0.43650    49.68637    49.30165 
  11  24   3     0.43369    33.85755    33.38215 
  11  24   4     0.42984     7.10055     6.99346 
  11  24   5     0.42505  1170.42013  1150.96844 
  11  24   6     0.41940    65.49218    63.98268 
  11  24   7     0.41300   300.65601   292.83920 
  11  24   8     0.40597     3.04772     2.97941 
  11  24   9     0.39843    69.01223    67.42759 
  11  24  10     0.39047    65.68683    65.48876 
  11  24  11     0.38221   721.50528   727.87519 
  11  24  12     0.37374    11.22095    11.76810 
  11  25   1     0.42575     0.00436     0.00429 
  11  25   2     0.42418   231.26023   226.95768 
  11  25   3     0.42160    65.29406    63.62488 
  11  25   4     0.41806     4.14621     4.03487 
  11  25   5     0.41365    66.74596    65.12133 
  11  25   6     0.40843   219.01974   214.58066 
  11  25   7     0.40252   177.61848   173.09103 
  11  25   8     0.39601    59.83376    59.11412 
  11  25   9     0.38899   114.63263   114.53346 
  11  25  10     0.38158    68.28396    68.97123 
  11  25  11     0.37386     0.08350     0.08736 
  11  26   1     0.41385   522.24135   510.19796 
  11  26   2     0.41240    17.25947    16.86514 
  11  26   3     0.41003     3.65984     3.55383 
  11  26   4     0.40678    73.41385    71.87636 
  11  26   5     0.40271  1021.40057   997.02938 
  11  26   6     0.39789    10.63317    10.38815 
  11  26   7     0.39242   308.98394   308.59000 
  11  26   8     0.38637     0.06605     0.06596 
  11  26   9     0.37985   254.52401   256.43184 
  11  26  10     0.37294     1.02398     1.09113 
  11  27   1     0.40248    56.48909    55.03457 
  11  27   2     0.40115     3.97075     3.90357 
  11  27   3     0.39897     7.08293     6.94945 
  11  27   4     0.39597   236.66188   233.82529 
  11  27   5     0.39221    39.01323    38.97957 
  11  27   6     0.38776    16.05829    16.11450 
  11  27   7     0.38268    87.36785    88.05828 
  11  27   8     0.37707     1.47992     1.49748 
  11  28   1     0.39162  1192.95450  1190.47909 
  11  28   2     0.39039    16.58201    16.53563 
  11  28   3     0.38838   109.85947   109.78688 
  11  28   4     0.38561    67.82253    67.35685 
  11  28   5     0.38214  1607.37901  1621.87367 
  11  28   6     0.37802    10.54455    10.68968 
  11  28   7     0.37331   365.35511   386.50287 
  11  29   1     0.38124   131.02795   132.25914 
  11  29   2     0.38011    95.68858    96.51105 
  11  29   3     0.37825    33.12233    33.54808 
  11  29   4     0.37569    87.53372    89.49250 
  11  29   5     0.37248    14.48316    15.56737 
  12   0   0     0.73430    54.38941    55.10652 
  12   0   1     0.73161   602.96358   613.24352 
  12   0   2     0.72372   285.19895   286.78553 
  12   0   3     0.71112   115.58794   117.53599 
  12   0   4     0.69454    73.53588    73.98122 
  12   0   5     0.67484   166.52660   168.97063 
  12   0   6     0.65289     1.90748     1.89866 
  12   0   7     0.62952  1506.02130  1506.20972 
  12   0   8     0.60544     7.65647     7.63865 
  12   0   9     0.58122     6.35674     6.30352 
  12   0  10     0.55732    35.00798    34.45361 
  12   0  11     0.53406   111.57541   111.11169 
  12   0  12     0.51165   302.35754   302.87975 
  12   0  13     0.49022   232.58084   237.55174 
  12   0  14     0.46986   268.92207   279.74928 
  12   0  15     0.45058   297.30783   301.39699 
  12   0  16     0.43239   361.79040   356.82480 
  12   0  17     0.41526   111.65229   109.27962 
  12   0  18     0.39915   608.54554   597.96188 
  12   0  19     0.38400     0.00030     0.00031 
  12   1   0     0.73305    14.40239    14.62198 
  12   1   1     0.73038    13.02228    13.32073 
  12   1   2     0.72253   340.63457   341.66215 
  12   1   3     0.70999   207.94317   211.10226 
  12   1   4     0.69349   143.90064   144.29086 
  12   1   5     0.67387    35.34209    35.76786 
  12   1   6     0.65201     2.02283     2.01634 
  12   1   7     0.62873     0.35545     0.35641 
  12   1   8     0.60474    16.82924    16.77749 
  12   1   9     0.58061    40.67642    40.54481 
  12   1  10     0.55678   123.60099   121.67139 
  12   1  11     0.53358    80.39305    79.98006 
  12   1  12     0.51122   142.84341   143.05476 
  12   1  13     0.48985     4.78172     4.88657 
  12   1  14     0.46953    19.25201    20.02994 
  12   1  15     0.45029   100.68870   102.14901 
  12   1  16     0.43214   108.71442   106.83557 
  12   1  17     0.41504    10.67179    10.44723 
  12   1  18     0.39895     1.08570     1.06508 
  12   1  19     0.38382    11.04921    11.12217 
  12   2   0     0.72935   304.47488   310.43874 
  12   2   1     0.72672    81.10204    81.54021 
  12   2   2     0.71898   232.34484   230.64381 
  12   2   3     0.70663   723.69704   735.87672 
  12   2   4     0.69035   710.95353   722.32732 
  12   2   5     0.67099  1391.95840  1390.72682 
  12   2   6     0.64940  2124.76712  2133.95091 
  12   2   7     0.62639    59.04614    58.43000 
  12   2   8     0.60265  1488.22903  1483.68903 
  12   2   9     0.57876   954.71306   944.11004 
  12   2  10     0.55515  1003.28372   989.36407 
  12   2  11     0.53215    81.21254    80.52417 
  12   2  12     0.50996   518.92484   521.26372 
  12   2  13     0.48874    30.66061    31.26508 
  12   2  14     0.46855   256.06630   263.33249 
  12   2  15     0.44943   281.60206   283.88448 
  12   2  16     0.43138   187.82741   184.76597 
  12   2  17     0.41436   128.86553   126.16977 
  12   2  18     0.39835   157.04926   153.40351 
  12   2  19     0.38329     4.99330     5.03419 
  12   3   0     0.72330   362.37623   363.85285 
  12   3   1     0.72073    22.21986    22.30039 
  12   3   2     0.71319   486.09074   491.77592 
  12   3   3     0.70113   263.42623   269.53279 
  12   3   4     0.68522   318.14490   323.71327 
  12   3   5     0.66628    71.85746    72.49083 
  12   3   6     0.64512    81.83409    81.62227 
  12   3   7     0.62255     2.09469     2.07127 
  12   3   8     0.59923    32.59591    32.16306 
  12   3   9     0.57573    24.07226    23.65062 
  12   3  10     0.55247    69.14735    68.92017 
  12   3  11     0.52978    90.08297    88.79843 
  12   3  12     0.50788   134.19498   135.94566 
  12   3  13     0.48691    20.23213    20.56370 
  12   3  14     0.46694   185.57293   189.70497 
  12   3  15     0.44801    76.40256    76.41661 
  12   3  16     0.43012    10.19709    10.04635 
  12   3  17     0.41324    14.76291    14.37712 
  12   3  18     0.39736     3.72532     3.65397 
  12   3  19     0.38240     4.22120     4.25658 
  12   4   0     0.71509   569.45706   571.08623 
  12   4   1     0.71260   830.53090   841.57990 
  12   4   2     0.70531  1600.21408  1618.42895 
  12   4   3     0.69363    43.09973    43.21192 
  12   4   4     0.67822   588.10478   595.00049 
  12   4   5     0.65984    59.61602    60.16339 
  12   4   6     0.63927    36.11092    35.75645 
  12   4   7     0.61729  1806.27509  1812.55660 
  12   4   8     0.59453    66.40076    65.16829 
  12   4   9     0.57156    57.57885    57.03531 
  12   4  10     0.54878   141.97830   140.26700 
  12   4  11     0.52653   159.13434   157.88073 
  12   4  12     0.50501   752.32576   757.07113 
  12   4  13     0.48438   439.52659   450.41013 
  12   4  14     0.46471   704.81610   721.29806 
  12   4  15     0.44603   408.69280   407.07306 
  12   4  16     0.42837   895.56354   888.18034 
  12   4  17     0.41169   236.28557   231.70944 
  12   4  18     0.39598  1309.46598  1293.75673 
  12   4  19     0.38117     1.61736     1.63218 
  12   5   0     0.70492   229.58878   232.28746 
  12   5   1     0.70254    27.88507    28.36496 
  12   5   2     0.69555  2099.07214  2115.71199 
  12   5   3     0.68434   315.71352   321.66658 
  12   5   4     0.66953   706.88589   707.12556 
  12   5   5     0.65182    77.67917    77.49052 
  12   5   6     0.63198    10.61297    10.63218 
  12   5   7     0.61071     1.80984     1.77528 
  12   5   8     0.58865   106.80564   105.98326 
  12   5   9     0.56633    11.26096    11.11181 
  12   5  10     0.54415   425.58986   421.85431 
  12   5  11     0.52243   182.47093   181.71528 
  12   5  12     0.50139   373.60274   380.30508 
  12   5  13     0.48118    30.04909    30.77431 
  12   5  14     0.46188     0.50646     0.51194 
  12   5  15     0.44353    40.39638    40.50887 
  12   5  16     0.42615   352.14115   346.32450 
  12   5  17     0.40973     0.78365     0.76091 
  12   5  18     0.39422    10.69445    10.66395 
  12   5  19     0.37961    13.28135    13.36690 
  12   6   0     0.69307     3.76238     3.77334 
  12   6   1     0.69081   110.06674   111.74567 
  12   6   2     0.68415    12.23888    12.45879 
  12   6   3     0.67348   186.76151   188.29638 
  12   6   4     0.65935   141.61782   143.35438 
  12   6   5     0.64242   421.91975   419.69215 
  12   6   6     0.62340  1192.81888  1181.72010 
  12   6   7     0.60295     3.78433     3.77404 
  12   6   8     0.58170   966.29023   955.11877 
  12   6   9     0.56012   418.06257   412.20321 
  12   6  10     0.53864   669.38075   664.80318 
  12   6  11     0.51755    44.77102    45.43463 
  12   6  12     0.49708   302.51131   305.77143 
  12   6  13     0.47736     7.97279     8.18636 
  12   6  14     0.45850   124.43574   124.83464 
  12   6  15     0.44054   257.36193   257.01943 
  12   6  16     0.42349    99.32048    97.27573 
  12   6  17     0.40736    49.71700    48.84016 
  12   6  18     0.39211   102.19608   102.11569 
  12   6  19     0.37772     0.31744     0.32185 
  12   7   0     0.67980  1351.62079  1373.33771 
  12   7   1     0.67767    24.70043    25.05676 
  12   7   2     0.67138   856.68578   855.81509 
  12   7   3     0.66129   225.71965   227.87167 
  12   7   4     0.64789   589.47462   587.55337 
  12   7   5     0.63181    64.22064    64.31475 
  12   7   6     0.61369   288.12340   284.32730 
  12   7   7     0.59416     0.22780     0.22336 
  12   7   8     0.57379   334.76482   330.67392 
  12   7   9     0.55305     0.02197     0.02181 
  12   7  10     0.53234    95.06582    94.39092 
  12   7  11     0.51196   121.85201   122.17972 
  12   7  12     0.49211   206.04465   209.89285 
  12   7  13     0.47296    54.37266    55.57050 
  12   7  14     0.45459   566.53787   572.60007 
  12   7  15     0.43707    40.42501    40.12673 
  12   7  16     0.42041     6.86632     6.67371 
  12   7  17     0.40461    18.91455    18.71014 
  12   7  18     0.38966    24.09665    24.08892 
  12   7  19     0.37553     0.73312     0.75087 
  12   8   0     0.66540   842.52914   856.79574 
  12   8   1     0.66340   407.22683   412.35734 
  12   8   2     0.65750  2005.27675  2011.49711 
  12   8   3     0.64801     6.53982     6.52539 
  12   8   4     0.63539   935.61548   935.78759 
  12   8   5     0.62020     9.83568     9.79028 
  12   8   6     0.60303   198.41223   197.85431 
  12   8   7     0.58447   859.66683   843.71443 
  12   8   8     0.56505   210.63414   208.38302 
  12   8   9     0.54521    38.92679    38.53683 
  12   8  10     0.52534   348.59787   349.26844 
  12   8  11     0.50572    94.95189    95.39469 
  12   8  12     0.48657   970.36160   990.44112 
  12   8  13     0.46803   279.92918   285.83939 
  12   8  14     0.45021   916.11625   929.19836 
  12   8  15     0.43317   186.52740   184.53638 
  12   8  16     0.41694  1066.54631  1040.66221 
  12   8  17     0.40151   144.88245   141.91934 
  12   8  18     0.38689  1263.31156  1268.13560 
  12   8  19     0.37305     2.82555     3.00447 
  12   9   0     0.65014    32.83298    33.13107 
  12   9   1     0.64827    10.88664    10.88537 
  12   9   2     0.64276  1770.86972  1763.12376 
  12   9   3     0.63389   125.27288   124.93498 
  12   9   4     0.62206   392.63131   388.78004 
  12   9   5     0.60778     5.16396     5.06108 
  12   9   6     0.59160   195.81776   195.46381 
  12   9   7     0.57405     8.91638     8.80950 
  12   9   8     0.55561   123.39079   121.71670 
  12   9   9     0.53672     0.35422     0.34859 
  12   9  10     0.51773   721.95661   731.97270 
  12   9  11     0.49892   181.71573   184.23598 
  12   9  12     0.48050   522.53268   531.82758 
  12   9  13     0.46262    15.91809    16.11245 
  12   9  14     0.44539    10.87905    10.88690 
  12   9  15     0.42887    31.69288    31.33199 
  12   9  16     0.41310   567.50051   552.64986 
  12   9  17     0.39809     0.91133     0.88991 
  12   9  18     0.38382    21.45933    21.60083 
  12  10   0     0.63426   105.26276   105.00494 
  12  10   1     0.63253     9.66065     9.66718 
  12  10   2     0.62741    73.50690    72.96790 
  12  10   3     0.61915   245.17881   244.74028 
  12  10   4     0.60811   348.12210   340.58839 
  12  10   5     0.59475   486.52278   478.52029 
  12  10   6     0.57956  1144.06875  1135.11324 
  12  10   7     0.56303    62.17876    61.57573 
  12  10   8     0.54560   824.60173   816.83831 
  12  10   9     0.52768   313.35813   309.55822 
  12  10  10     0.50961   551.78557   555.39377 
  12  10  11     0.49164    54.08956    55.03245 
  12  10  12     0.47398   248.67456   253.36211 
  12  10  13     0.45680     0.41971     0.42596 
  12  10  14     0.44019   119.98192   119.77110 
  12  10  15     0.42422    80.13436    78.64292 
  12  10  16     0.40894   116.25311   113.36679 
  12  10  17     0.39436    20.46703    20.41505 
  12  10  18     0.38048   122.79646   123.86727 
  12  11   0     0.61800   528.46956   531.58705 
  12  11   1     0.61639     5.64352     5.61088 
  12  11   2     0.61165     1.73343     1.70636 
  12  11   3     0.60399    54.38943    54.07058 
  12  11   4     0.59373    40.26535    39.62421 
  12  11   5     0.58128     4.75665     4.71372 
  12  11   6     0.56708   165.37835   163.45178 
  12  11   7     0.55156    12.65251    12.58418 
  12  11   8     0.53515   718.65754   717.59811 
  12  11   9     0.51821     1.70013     1.71591 
  12  11  10     0.50105    30.89789    31.37819 
  12  11  11     0.48395    39.06033    40.11636 
  12  11  12     0.46708   107.12987   109.46225 
  12  11  13     0.45061    14.14541    14.33799 
  12  11  14     0.43464   711.05661   709.62332 
  12  11  15     0.41925    64.53465    63.04361 
  12  11  16     0.40448    73.40012    72.63068 
  12  11  17     0.39035    46.91634    46.79147 
  12  11  18     0.37688    43.19068    43.69893 
  12  12   0     0.60155   243.79711   241.46412 
  12  12   1     0.60007   244.41629   241.49118 
  12  12   2     0.59569   598.40596   591.29673 
  12  12   3     0.58861   268.27337   266.20829 
  12  12   4     0.57910   273.23753   270.63651 
  12  12   5     0.56753   419.90587   414.32028 
  12  12   6     0.55429    49.00553    48.10569 
  12  12   7     0.53977   966.23032   951.28466 
  12  12   8     0.52436    82.64928    83.31282 
  12  12   9     0.50839    60.46605    61.21564 
  12  12  10     0.49217   252.36907   257.15204 
  12  12  11     0.47592    96.13255    98.58183 
  12  12  12     0.45986   675.32697   677.39768 
  12  12  13     0.44411    89.79381    89.82562 
  12  12  14     0.42880   725.36646   717.38957 
  12  12  15     0.41400    61.71699    60.34831 
  12  12  16     0.39976   897.13627   882.23053 
  12  12  17     0.38611    18.00524    17.93000 
  12  12  18     0.37305   935.57518   994.79188 
  12  13   0     0.58507   162.74020   159.14644 
  12  13   1     0.58371     9.21654     9.11996 
  12  13   2     0.57968   490.23629   486.60392 
  12  13   3     0.57315    75.84907    74.73684 
  12  13   4     0.56436    37.07087    36.85539 
  12  13   5     0.55364     4.10702     4.04584 
  12  13   6     0.54132   422.29076   417.31171 
  12  13   7     0.52777     0.35507     0.35062 
  12  13   8     0.51334   228.61068   230.00772 
  12  13   9     0.49833     0.56276     0.56947 
  12  13  10     0.48302   520.56469   537.36464 
  12  13  11     0.46764    74.28789    75.73914 
  12  13  12     0.45237   333.73697   339.38308 
  12  13  13     0.43736     0.00399     0.00396 
  12  13  14     0.42271    84.86291    83.17616 
  12  13  15     0.40851    34.89998    34.17322 
  12  13  16     0.39481   549.88658   547.79646 
  12  13  17     0.38164     3.58682     3.62290 
  12  14   0     0.56872   290.37977   286.09379 
  12  14   1     0.56747    60.72378    59.92790 
  12  14   2     0.56377   421.41170   418.38025 
  12  14   3     0.55775   492.60050   483.62731 
  12  14   4     0.54964   890.08271   878.90956 
  12  14   5     0.53972   832.92456   820.15397 
  12  14   6     0.52829  1737.59477  1714.08356 
  12  14   7     0.51568   601.18579   611.77753 
  12  14   8     0.50219  1395.68312  1419.92678 
  12  14   9     0.48811   288.86028   293.34939 
  12  14  10     0.47370  1013.72156  1033.94964 
  12  14  11     0.45916    93.93690    94.14846 
  12  14  12     0.44468   493.97514   494.31976 
  12  14  13     0.43040     8.09044     7.97622 
  12  14  14     0.41642   262.56161   257.02886 
  12  14  15     0.40283     0.09455     0.09243 
  12  14  16     0.38967   216.68793   216.61450 
  12  14  17     0.37699     1.36572     1.38181 
  12  15   0     0.55260   480.07683   478.49825 
  12  15   1     0.55145    17.18523    17.09912 
  12  15   2     0.54805    10.78459    10.65644 
  12  15   3     0.54252   131.40157   129.65961 
  12  15   4     0.53505    34.52460    34.48760 
  12  15   5     0.52588    90.28154    89.95555 
  12  15   6     0.51529   328.79810   334.24563 
  12  15   7     0.50357     9.14609     9.18327 
  12  15   8     0.49098   548.03185   558.54523 
  12  15   9     0.47780     3.64581     3.73241 
  12  15  10     0.46426     2.03892     2.07708 
  12  15  11     0.45055     4.36667     4.42747 
  12  15  12     0.43685    19.71096    19.57026 
  12  15  13     0.42328     5.41041     5.29452 
  12  15  14     0.40997   596.79427   579.46352 
  12  15  15     0.39697    52.24491    51.41320 
  12  15  16     0.38437   163.62487   163.76551 
  12  15  17     0.37218    49.68515    53.69227 
  12  16   0     0.53680   401.12175   394.73511 
  12  16   1     0.53574    41.99885    41.71442 
  12  16   2     0.53262   686.94725   682.75980 
  12  16   3     0.52754   397.35152   392.80663 
  12  16   4     0.52066   245.08913   245.58322 
  12  16   5     0.51221   646.51297   649.00083 
  12  16   6     0.50241    12.82442    13.02090 
  12  16   7     0.49152   463.13953   471.22967 
  12  16   8     0.47980     3.17958     3.22311 
  12  16   9     0.46748   256.08713   261.21028 
  12  16  10     0.45477    87.00522    87.98917 
  12  16  11     0.44186    66.68278    66.90190 
  12  16  12     0.42891   338.18175   334.26171 
  12  16  13     0.41605     9.91934     9.71693 
  12  16  14     0.40339   541.36664   532.64493 
  12  16  15     0.39099     0.82436     0.82146 
  12  16  16     0.37893   777.59735   783.98029 
  12  17   0     0.52138     0.79350     0.79069 
  12  17   1     0.52041    35.20367    35.19224 
  12  17   2     0.51755  1363.51885  1383.73327 
  12  17   3     0.51288   189.96560   191.14441 
  12  17   4     0.50656   340.30303   344.10675 
  12  17   5     0.49876    91.86584    93.11464 
  12  17   6     0.48970   109.74053   112.15870 
  12  17   7     0.47960    34.87600    35.36152 
  12  17   8     0.46869   362.45342   373.59961 
  12  17   9     0.45719     2.39737     2.42382 
  12  17  10     0.44528   342.47723   343.00594 
  12  17  11     0.43314    54.08927    53.52629 
  12  17  12     0.42092   237.71201   231.04293 
  12  17  13     0.40875     0.80401     0.78566 
  12  17  14     0.39672   110.72895   109.18243 
  12  17  15     0.38491     5.58845     5.56431 
  12  17  16     0.37339   402.13277   424.78090 
  12  18   0     0.50639    32.92861    33.25318 
  12  18   1     0.50551   142.44117   143.08542 
  12  18   2     0.50289    70.90972    71.55744 
  12  18   3     0.49860   123.48946   125.10808 
  12  18   4     0.49278   465.43848   476.73492 
  12  18   5     0.48560   200.43838   205.51754 
  12  18   6     0.47722  1261.86631  1295.73783 
  12  18   7     0.46786   525.75027   536.18020 
  12  18   8     0.45772  1300.76540  1307.94801 
  12  18   9     0.44698    24.79459    24.84438 
  12  18  10     0.43584  1077.23255  1069.60476 
  12  18  11     0.42444    61.90966    60.75821 
  12  18  12     0.41292   509.76278   496.64817 
  12  18  13     0.40141    48.25434    47.32481 
  12  18  14     0.39000   277.41276   277.03822 
  12  18  15     0.37876    36.97818    37.32988 
  12  19   0     0.49188  1381.76229  1406.37601 
  12  19   1     0.49107    17.65460    17.98654 
  12  19   2     0.48866   348.12265   354.82245 
  12  19   3     0.48473   141.12610   144.54232 
  12  19   4     0.47938   405.30419   411.40680 
  12  19   5     0.47275   122.47573   125.32165 
  12  19   6     0.46502   570.87608   586.16425 
  12  19   7     0.45634    11.94110    12.13981 
  12  19   8     0.44692   386.71186   387.32053 
  12  19   9     0.43691     0.23768     0.23597 
  12  19  10     0.42648     0.06203     0.06118 
  12  19  11     0.41578     7.24948     7.09814 
  12  19  12     0.40494    29.06670    28.69345 
  12  19  13     0.39406    12.72914    12.68655 
  12  19  14     0.38325   502.80063   506.90959 
  12  19  15     0.37257    24.50488    26.29140 
  12  20   0     0.47786   786.03124   804.19348 
  12  20   1     0.47711    33.18584    34.07578 
  12  20   2     0.47491  1273.86973  1298.90220 
  12  20   3     0.47129   138.04737   142.63818 
  12  20   4     0.46637   660.86489   676.51599 
  12  20   5     0.46026   250.82032   251.80247 
  12  20   6     0.45311   190.91897   193.62021 
  12  20   7     0.44508     0.93285     0.93457 
  12  20   8     0.43632    98.21314    97.41865 
  12  20   9     0.42699   218.46290   217.19150 
  12  20  10     0.41724   253.83137   247.27119 
  12  20  11     0.40721     7.12833     6.99770 
  12  20  12     0.39700   447.94730   440.70731 
  12  20  13     0.38674    13.71824    13.75410 
  12  20  14     0.37651   692.62415   701.77021 
  12  21   0     0.46433   142.61453   145.35124 
  12  21   1     0.46365    15.94174    16.23674 
  12  21   2     0.46163  1780.82863  1794.13867 
  12  21   3     0.45830    47.94406    48.10808 
  12  21   4     0.45377   505.70671   510.93447 
  12  21   5     0.44814     8.62402     8.62374 
  12  21   6     0.44154    39.63201    39.79444 
  12  21   7     0.43409     0.75458     0.74694 
  12  21   8     0.42595   139.86857   137.47731 
  12  21   9     0.41726    12.13922    11.82464 
  12  21  10     0.40815   366.06120   359.10882 
  12  21  11     0.39874    57.94335    56.73389 
  12  21  12     0.38915   273.51314   273.36716 
  12  21  13     0.37947     1.59570     1.60545 
  12  22   0     0.45132    25.06947    25.28300 
  12  22   1     0.45069   247.33642   250.55700 
  12  22   2     0.44883    57.57850    57.83603 
  12  22   3     0.44577    10.56731    10.53898 
  12  22   4     0.44160   278.87055   279.98577 
  12  22   5     0.43641    10.25333    10.17201 
  12  22   6     0.43030   625.81806   616.82204 
  12  22   7     0.42340   471.90891   461.97193 
  12  22   8     0.41584   651.51567   637.99509 
  12  22   9     0.40774    33.33025    32.74788 
  12  22  10     0.39922   570.08475   560.43821 
  12  22  11     0.39041    19.15805    19.10369 
  12  22  12     0.38139   243.90359   246.29772 
  12  22  13     0.37226    65.50178    70.68996 
  12  23   0     0.43880   716.61307   716.21590 
  12  23   1     0.43823     0.14877     0.14843 
  12  23   2     0.43651   172.49431   171.16665 
  12  23   3     0.43370    10.58377    10.43602 
  12  23   4     0.42986   153.21658   150.90531 
  12  23   5     0.42506     3.63872     3.57845 
  12  23   6     0.41941   176.86308   172.78337 
  12  23   7     0.41302    12.58953    12.26157 
  12  23   8     0.40599   366.51474   358.27310 
  12  23   9     0.39844     7.47278     7.30155 
  12  23  10     0.39048    35.97877    35.86904 
  12  23  11     0.38222     5.77483     5.82563 
  12  23  12     0.37375    67.45705    70.73093 
  12  24   0     0.42678   460.38266   456.23718 
  12  24   1     0.42625   107.39799   105.68532 
  12  24   2     0.42468   771.63723   757.70182 
  12  24   3     0.42209   241.12510   235.91659 
  12  24   4     0.41854   525.33843   511.77955 
  12  24   5     0.41411   420.67579   411.54812 
  12  24   6     0.40888   265.65043   259.22454 
  12  24   7     0.40295    15.72299    15.39234 
  12  24   8     0.39641   232.20216   229.31721 
  12  24   9     0.38938   349.24943   349.18361 
  12  24  10     0.38194   439.94072   444.13316 
  12  24  11     0.37420     0.01123     0.01168 
  12  25   0     0.41525     5.57617     5.45773 
  12  25   1     0.41476     4.76926     4.67027 
  12  25   2     0.41331   332.44837   323.81038 
  12  25   3     0.41092     1.29229     1.26173 
  12  25   4     0.40764    55.48182    54.52370 
  12  25   5     0.40355     4.72119     4.65123 
  12  25   6     0.39870    84.45337    82.66450 
  12  25   7     0.39320     4.79476     4.77761 
  12  25   8     0.38712     1.75453     1.76319 
  12  25   9     0.38056    28.45606    28.70045 
  12  25  10     0.37361   265.33734   279.05671 
  12  26   0     0.40418   116.55434   115.28047 
  12  26   1     0.40373   464.61481   458.34376 
  12  26   2     0.40239   268.06941   261.08441 
  12  26   3     0.40019    69.38566    68.18513 
  12  26   4     0.39716   519.66160   510.58945 
  12  26   5     0.39337    73.87593    73.58503 
  12  26   6     0.38888   730.64736   729.85635 
  12  26   7     0.38376   968.71905   975.50167 
  12  26   8     0.37810   734.62362   744.53688 
  12  26   9     0.37199    29.72953    32.22381 
  12  27   0     0.39357    88.81531    88.44638 
  12  27   1     0.39316     0.03492     0.03480 
  12  27   2     0.39192     6.61031     6.60330 
  12  27   3     0.38988    14.53179    14.51840 
  12  27   4     0.38708     3.83668     3.85507 
  12  27   5     0.38357    10.15040    10.23022 
  12  27   6     0.37940     4.05352     4.07830 
  12  27   7     0.37464     2.73504     2.82797 
  12  28   0     0.38340   329.42842   332.10949 
  12  28   1     0.38301   115.94185   116.86668 
  12  28   2     0.38187   536.73209   541.93734 
  12  28   3     0.37998   430.19539   433.68362 
  12  28   4     0.37739   308.93399   312.86641 
  12  28   5     0.37413   746.70434   777.40816 
  12  29   0     0.37365    25.38648    26.67136 
  12  29   1     0.37329    12.79487    13.54151 
  12  29   2     0.37223    82.44126    89.02069 
  13   0   1     0.67570   212.96956   216.47118 
  13   0   2     0.66947    62.61183    62.66266 
  13   0   3     0.65946    33.47406    33.85755 
  13   0   4     0.64617    78.43467    78.12258 
  13   0   5     0.63021  1151.99854  1151.71280 
  13   0   6     0.61222   113.72014   112.09966 
  13   0   7     0.59283   447.13985   444.26345 
  13   0   8     0.57259   151.17808   149.33674 
  13   0   9     0.55198   202.47845   201.36095 
  13   0  10     0.53139    27.39528    27.01002 
  13   0  11     0.51111   939.23604   940.90622 
  13   0  12     0.49136   572.89535   583.07592 
  13   0  13     0.47229    18.78655    19.29461 
  13   0  14     0.45400    97.28478    98.30464 
  13   0  15     0.43654   361.03378   358.27973 
  13   0  16     0.41994     4.51995     4.40668 
  13   0  17     0.40419   520.14533   514.48819 
  13   0  18     0.38929    46.54444    46.53134 
  13   0  19     0.37520    56.32247    57.89811 
  13   1   1     0.67473   177.74190   180.35117 
  13   1   2     0.66852   194.92687   196.79754 
  13   1   3     0.65856   490.42843   497.40563 
  13   1   4     0.64532   446.62959   445.19052 
  13   1   5     0.62942   113.08456   113.11483 
  13   1   6     0.61150    39.10713    38.45928 
  13   1   7     0.59217   265.15237   264.52936 
  13   1   8     0.57200    32.13238    31.90054 
  13   1   9     0.55145   180.44236   179.53966 
  13   1  10     0.53091    18.70963    18.39379 
  13   1  11     0.51068     0.00000     0.00000 
  13   1  12     0.49098   281.47287   286.87472 
  13   1  13     0.47196    10.73273    11.05228 
  13   1  14     0.45370     1.87972     1.89913 
  13   1  15     0.43628    81.10660    80.44610 
  13   1  16     0.41971     2.32679     2.27148 
  13   1  17     0.40399   236.27028   233.45806 
  13   1  18     0.38910     0.28169     0.28151 
  13   1  19     0.37503   110.27913   113.56694 
  13   2   1     0.67184  1699.88787  1698.13832 
  13   2   2     0.66571    27.07487    27.46727 
  13   2   3     0.65587   191.00429   191.87667 
  13   2   4     0.64279     6.84921     6.81988 
  13   2   5     0.62708  1142.39790  1130.61144 
  13   2   6     0.60935    10.62646    10.47755 
  13   2   7     0.59022    32.35167    32.23400 
  13   2   8     0.57023    82.24534    81.07513 
  13   2   9     0.54987    14.95048    14.77717 
  13   2  10     0.52950   577.12882   569.47043 
  13   2  11     0.50943  1638.14002  1650.71627 
  13   2  12     0.48987   371.45996   379.60028 
  13   2  13     0.47096    76.23564    78.96540 
  13   2  14     0.45282   295.37847   300.45171 
  13   2  15     0.43549   415.02583   413.15043 
  13   2  16     0.41901   221.57717   216.32457 
  13   2  17     0.40336  1187.20816  1167.81758 
  13   2  18     0.38855    40.32472    40.27827 
  13   2  19     0.37453     3.88709     4.02422 
  13   3   1     0.66710   324.89120   326.19305 
  13   3   2     0.66111   332.49816   335.52848 
  13   3   3     0.65146   374.95277   374.84943 
  13   3   4     0.63864    72.16151    71.45947 
  13   3   5     0.62322   132.47302   131.23765 
  13   3   6     0.60581    50.31862    50.23487 
  13   3   7     0.58700   131.35765   128.58220 
  13   3   8     0.56733     5.11722     5.05252 
  13   3   9     0.54726    31.67915    31.28259 
  13   3  10     0.52717   223.65869   221.34394 
  13   3  11     0.50736     0.46082     0.46706 
  13   3  12     0.48802   123.86898   125.73757 
  13   3  13     0.46932     1.99202     2.07103 
  13   3  14     0.45136    44.45535    44.82971 
  13   3  15     0.43420   124.97325   123.91652 
  13   3  16     0.41785     2.02796     1.97346 
  13   3  17     0.40233   159.68940   155.50600 
  13   3  18     0.38762    46.81360    47.01279 
  13   3  19     0.37371   179.31189   188.16607 
  13   4   1     0.66064   306.51505   309.06682 
  13   4   2     0.65481    16.35959    16.30200 
  13   4   3     0.64544    81.96179    81.68236 
  13   4   4     0.63297   439.89682   439.39512 
  13   4   5     0.61794  1721.14333  1731.17256 
  13   4   6     0.60096    31.41647    31.03176 
  13   4   7     0.58258   580.93318   578.21678 
  13   4   8     0.56334   139.10265   137.88389 
  13   4   9     0.54368   195.01526   193.13209 
  13   4  10     0.52397    50.37178    50.70645 
  13   4  11     0.50449  1197.84694  1204.82434 
  13   4  12     0.48547  1178.27845  1207.95147 
  13   4  13     0.46706     3.06555     3.13256 
  13   4  14     0.44935   274.24735   276.27937 
  13   4  15     0.43240   494.76510   488.01431 
  13   4  16     0.41625    29.92304    29.30942 
  13   4  17     0.40090   837.16740   823.75908 
  13   4  18     0.38634    99.81481    99.64773 
  13   4  19     0.37256   118.51158   127.18878 
  13   5   1     0.65260   260.11538   258.83665 
  13   5   2     0.64698     5.23955     5.20206 
  13   5   3     0.63793   600.64144   593.97756 
  13   5   4     0.62588   399.41530   396.14690 
  13   5   5     0.61135     3.50151     3.43976 
  13   5   6     0.59489    86.54728    85.25169 
  13   5   7     0.57705    27.70122    27.30517 
  13   5   8     0.55833    38.05619    37.25119 
  13   5   9     0.53917    13.51366    13.37611 
  13   5  10     0.51993    30.09745    29.89123 
  13   5  11     0.50089   155.93852   158.21330 
  13   5  12     0.48226   799.29198   824.54880 
  13   5  13     0.46419     2.29749     2.33950 
  13   5  14     0.44679     0.00022     0.00022 
  13   5  15     0.43012   115.68719   113.97818 
  13   5  16     0.41422    11.21198    10.97325 
  13   5  17     0.39908   355.07222   348.74544 
  13   5  18     0.38472    28.11332    28.03294 
  13   6   1     0.64316  1577.00578  1572.28748 
  13   6   2     0.63778   131.73948   130.26608 
  13   6   3     0.62911   338.93444   339.37669 
  13   6   4     0.61754    70.45181    70.78021 
  13   6   5     0.60357  1268.41145  1261.21029 
  13   6   6     0.58771    37.82789    37.36576 
  13   6   7     0.57049   212.25558   208.75734 
  13   6   8     0.55238    14.85759    14.80442 
  13   6   9     0.53381   227.87556   226.76321 
  13   6  10     0.51512   479.30595   486.92499 
  13   6  11     0.49658  2100.42967  2131.51138 
  13   6  12     0.47841   454.91897   463.24893 
  13   6  13     0.46076   351.02731   352.29501 
  13   6  14     0.44373   397.08181   397.86170 
  13   6  15     0.42739   652.46537   650.74798 
  13   6  16     0.41177   262.69856   257.58499 
  13   6  17     0.39689  1209.97962  1191.49720 
  13   6  18     0.38275    16.46839    16.59806 
  13   7   1     0.63251   231.37349   231.54081 
  13   7   2     0.62740   306.90576   304.62034 
  13   7   3     0.61914    75.75837    75.63123 
  13   7   4     0.60810    81.46774    79.70633 
  13   7   5     0.59474    26.86340    26.41876 
  13   7   6     0.57955     2.27215     2.25430 
  13   7   7     0.56302     0.11326     0.11216 
  13   7   8     0.54560    42.85199    42.44708 
  13   7   9     0.52768    57.65758    56.96020 
  13   7  10     0.50960   747.70236   752.62125 
  13   7  11     0.49163    26.12927    26.58479 
  13   7  12     0.47398    50.03754    50.98192 
  13   7  13     0.45679    77.72211    78.88215 
  13   7  14     0.44018   141.43243   141.18430 
  13   7  15     0.42422   203.46335   199.67665 
  13   7  16     0.40894    15.48524    15.10124 
  13   7  17     0.39435   111.22689   110.94410 
  13   7  18     0.38047   154.35442   155.70107 
  13   8   1     0.62087   424.14476   422.02109 
  13   8   2     0.61602     0.31118     0.30785 
  13   8   3     0.60820     0.04861     0.04755 
  13   8   4     0.59773   382.19025   374.19118 
  13   8   5     0.58503  1274.83799  1246.82101 
  13   8   6     0.57055     5.97453     5.87401 
  13   8   7     0.55476   461.96081   454.60256 
  13   8   8     0.53807   103.52352   102.73358 
  13   8   9     0.52086   133.73589   134.07518 
  13   8  10     0.50345    92.70402    93.10496 
  13   8  11     0.48610   621.80479   637.41847 
  13   8  12     0.46902  1027.53525  1064.71120 
  13   8  13     0.45235     4.58401     4.66068 
  13   8  14     0.43620   316.87557   314.30001 
  13   8  15     0.42065   347.70079   337.79357 
  13   8  16     0.40574    53.63370    52.51209 
  13   8  17     0.39148   639.03593   637.40665 
  13   8  18     0.37789    64.94221    65.84891 
  13   9   1     0.60841     0.16827     0.16476 
  13   9   2     0.60385    31.06674    30.87397 
  13   9   3     0.59648   178.25900   174.62445 
  13   9   4     0.58659   468.88312   458.04834 
  13   9   5     0.57457    67.01666    66.05005 
  13   9   6     0.56084   245.65897   241.42162 
  13   9   7     0.54582     0.02586     0.02565 
  13   9   8     0.52990    92.71453    91.33822 
  13   9   9     0.51344     6.72942     6.76937 
  13   9  10     0.49674     0.41615     0.42166 
  13   9  11     0.48005   230.93410   234.28621 
  13   9  12     0.46358  1005.67016  1024.36993 
  13   9  13     0.44746     2.54186     2.54914 
  13   9  14     0.43182     9.83039     9.64782 
  13   9  15     0.41671   102.64964   100.30889 
  13   9  16     0.40220    32.70750    31.85096 
  13   9  17     0.38830   437.09774   436.98254 
  13   9  18     0.37503    87.52760    90.13582 
  13  10   1     0.59534   821.47712   811.81466 
  13  10   2     0.59107    22.18250    22.11212 
  13  10   3     0.58414   268.04803   263.86754 
  13  10   4     0.57485     1.05724     1.03916 
  13  10   5     0.56353   624.82550   619.75778 
  13  10   6     0.55056     5.34242     5.30289 
  13  10   7     0.53632   166.69242   164.42044 
  13  10   8     0.52120    92.29456    92.26224 
  13  10   9     0.50551   237.14269   238.21591 
  13  10  10     0.48955   463.91925   474.11457 
  13  10  11     0.47355  1307.91490  1334.41145 
  13  10  12     0.45772   445.56960   448.03544 
  13  10  13     0.44219   422.63821   423.70908 
  13  10  14     0.42707   331.53835   329.91853 
  13  10  15     0.41244   544.50379   531.93535 
  13  10  16     0.39835   172.72356   168.71706 
  13  10  17     0.38484   822.84147   819.68312 
  13  11   1     0.58183     1.03761     1.02570 
  13  11   2     0.57784   508.27975   500.99933 
  13  11   3     0.57137    24.97087    24.67165 
  13  11   4     0.56266    96.37351    95.30435 
  13  11   5     0.55203    26.64006    26.49798 
  13  11   6     0.53982   125.34510   123.39024 
  13  11   7     0.52638     6.82739     6.77992 
  13  11   8     0.51206     0.06929     0.06951 
  13  11   9     0.49716     9.36853     9.46561 
  13  11  10     0.48195   651.20122   670.24046 
  13  11  11     0.46667    17.10606    17.49811 
  13  11  12     0.45149     4.86131     4.90351 
  13  11  13     0.43657    46.01865    45.67056 
  13  11  14     0.42200   161.00925   157.41017 
  13  11  15     0.40787   155.87435   153.08859 
  13  11  16     0.39423    25.06938    24.99825 
  13  11  17     0.38112    58.50318    59.02852 
  13  12   1     0.56804   454.99831   448.75345 
  13  12   2     0.56432    22.42995    22.29900 
  13  12   3     0.55829   194.15638   190.05749 
  13  12   4     0.55016    15.86250    15.70134 
  13  12   5     0.54021  1218.71446  1201.54974 
  13  12   6     0.52875   109.90506   108.52171 
  13  12   7     0.51610   961.31456   979.46362 
  13  12   8     0.50258   224.69597   227.66197 
  13  12   9     0.48847   592.13100   602.77127 
  13  12  10     0.47403   207.41187   211.27614 
  13  12  11     0.45946   711.68313   713.16629 
  13  12  12     0.44496   698.57974   699.69317 
  13  12  13     0.43065   222.74017   219.70249 
  13  12  14     0.41665   252.02360   246.38688 
  13  12  15     0.40303   479.08513   469.51473 
  13  12  16     0.38986    50.67563    50.63286 
  13  12  17     0.37716   603.36111   610.62565 
  13  13   1     0.55411     5.83665     5.73006 
  13  13   2     0.55066     5.94438     5.90530 
  13  13   3     0.54505   209.94951   207.93341 
  13  13   4     0.53747  1167.74182  1153.93648 
  13  13   5     0.52818     5.43324     5.35943 
  13  13   6     0.51746    23.25066    23.60556 
  13  13   7     0.50559    84.35783    84.72967 
  13  13   8     0.49286     0.40598     0.41617 
  13  13   9     0.47953   186.10329   188.75430 
  13  13  10     0.46584    83.09060    85.25639 
  13  13  11     0.45200    46.45691    47.04709 
  13  13  12     0.43816   819.98459   817.74281 
  13  13  13     0.42448    16.37181    16.06851 
  13  13  14     0.41105    28.74163    28.09456 
  13  13  15     0.39796    38.32069    37.42685 
  13  13  16     0.38526    44.37184    44.09502 
  13  13  17     0.37300   402.37566   428.27868 
  13  14   1     0.54016   858.44937   846.03964 
  13  14   2     0.53696     0.11849     0.11665 
  13  14   3     0.53175   566.77111   560.10879 
  13  14   4     0.52471     0.98362     0.99102 
  13  14   5     0.51606   230.15463   234.45396 
  13  14   6     0.50604    39.14191    39.39890 
  13  14   7     0.49492    76.19271    78.45318 
  13  14   8     0.48296   141.44321   146.06107 
  13  14   9     0.47040   122.71114   127.56361 
  13  14  10     0.45746   340.96154   343.68505 
  13  14  11     0.44433   390.73967   390.75298 
  13  14  12     0.43117   426.74606   420.34911 
  13  14  13     0.41811   387.91941   377.51976 
  13  14  14     0.40526   269.29758   264.98167 
  13  14  15     0.39270   357.43852   356.68030 
  13  14  16     0.38048    99.78949   100.65882 
  13  15   1     0.52629   249.89547   248.31040 
  13  15   2     0.52333   772.81960   776.16722 
  13  15   3     0.51851    39.11054    39.30130 
  13  15   4     0.51197     8.45940     8.48272 
  13  15   5     0.50392   343.26466   344.67285 
  13  15   6     0.49458   460.97690   475.88490 
  13  15   7     0.48419   140.62670   144.22766 
  13  15   8     0.47297    35.31649    36.09217 
  13  15   9     0.46115    12.72957    12.76837 
  13  15  10     0.44894   504.63136   507.20164 
  13  15  11     0.43651   132.24138   131.22240 
  13  15  12     0.42401    33.43616    32.81239 
  13  15  13     0.41158    17.39553    17.05790 
  13  15  14     0.39930   195.97482   192.72118 
  13  15  15     0.38727    92.51434    92.99394 
  13  15  16     0.37554    44.72577    45.80577 
  13  16   1     0.51258    68.83445    69.21136 
  13  16   2     0.50985     8.52105     8.56357 
  13  16   3     0.50538   253.90258   255.12107 
  13  16   4     0.49933    40.06665    40.61651 
  13  16   5     0.49185   537.72953   547.26714 
  13  16   6     0.48316     0.86292     0.89001 
  13  16   7     0.47345  1004.29288  1024.83594 
  13  16   8     0.46295    62.81957    63.73922 
  13  16   9     0.45185   875.61164   885.31458 
  13  16  10     0.44034   213.30552   212.92280 
  13  16  11     0.42859   436.14689   431.88458 
  13  16  12     0.41675   433.77064   423.77756 
  13  16  13     0.40492   500.31495   493.95719 
  13  16  14     0.39322   263.77670   262.81792 
  13  16  15     0.38171   440.58268   444.98175 
  13  17   1     0.49911   318.35886   322.79454 
  13  17   2     0.49658     4.48740     4.55383 
  13  17   3     0.49245   866.38095   884.44244 
  13  17   4     0.48685  1113.46820  1132.49191 
  13  17   5     0.47991    67.88743    68.83427 
  13  17   6     0.47182    10.51146    10.83374 
  13  17   7     0.46277   171.89037   174.10543 
  13  17   8     0.45295     2.73107     2.77464 
  13  17   9     0.44254   203.23865   203.78131 
  13  17  10     0.43171    61.37568    60.25541 
  13  17  11     0.42062    36.38035    35.34407 
  13  17  12     0.40941   753.11115   731.76924 
  13  17  13     0.39818    13.61585    13.29568 
  13  17  14     0.38703    12.16988    12.22608 
  13  17  15     0.37605    23.90259    24.33154 
  13  18   1     0.48592  1053.21454  1080.15765 
  13  18   2     0.48358    34.50388    35.50468 
  13  18   3     0.47977  1368.84801  1387.60751 
  13  18   4     0.47458   174.74918   177.84788 
  13  18   5     0.46815   252.36597   258.02245 
  13  18   6     0.46063    24.00435    24.09737 
  13  18   7     0.45220   348.42071   353.70127 
  13  18   8     0.44302    14.43978    14.48970 
  13  18   9     0.43327   484.09517   478.46037 
  13  18  10     0.42309   114.06780   111.61644 
  13  18  11     0.41264   299.02551   291.76199 
  13  18  12     0.40203   415.75546   405.09905 
  13  18  13     0.39139   846.22145   843.83932 
  13  18  14     0.38079   260.17565   262.34611 
  13  19   1     0.47305   631.42186   645.08991 
  13  19   2     0.47090   410.26988   425.21092 
  13  19   3     0.46737   141.51808   144.41558 
  13  19   4     0.46257    75.86156    76.78155 
  13  19   5     0.45661   395.94086   402.35571 
  13  19   6     0.44963   150.46702   151.95798 
  13  19   7     0.44177    76.64978    76.92387 
  13  19   8     0.43320     1.94728     1.92583 
  13  19   9     0.42407     0.51235     0.50283 
  13  19  10     0.41451   588.98736   576.77655 
  13  19  11     0.40467    60.56085    59.89298 
  13  19  12     0.39465     7.51321     7.49233 
  13  19  13     0.38457    45.63369    45.56826 
  13  19  14     0.37450   194.06247   200.99467 
  13  20   1     0.46053    40.77481    40.93607 
  13  20   2     0.45855   110.65147   111.00184 
  13  20   3     0.45529   476.00663   482.95996 
  13  20   4     0.45085    97.73194    98.86717 
  13  20   5     0.44532    97.74291    97.85726 
  13  20   6     0.43884    83.18459    83.14052 
  13  20   7     0.43153   533.57044   524.35579 
  13  20   8     0.42353     0.00973     0.00953 
  13  20   9     0.41498   518.61692   507.73688 
  13  20  10     0.40602   182.72181   178.59524 
  13  20  11     0.39675    29.96535    29.53968 
  13  20  12     0.38730   224.07793   225.24319 
  13  20  13     0.37775   455.82680   462.16996 
  13  21   1     0.44839    80.71366    80.80265 
  13  21   2     0.44656    38.74194    38.68767 
  13  21   3     0.44355   337.38922   338.30587 
  13  21   4     0.43944   350.71010   350.70333 
  13  21   5     0.43432     2.08838     2.07505 
  13  21   6     0.42830    96.05447    95.31316 
  13  21   7     0.42149    33.43685    32.56323 
  13  21   8     0.41403    65.32183    63.88364 
  13  21   9     0.40604    58.40126    57.07997 
  13  21  10     0.39762     4.21175     4.12137 
  13  21  11     0.38891    65.54825    65.48147 
  13  21  12     0.37999   516.24675   520.45612 
  13  22   1     0.43664   457.24911   453.87606 
  13  22   2     0.43494     6.97967     6.97432 
  13  22   3     0.43216  1382.07041  1358.60434 
  13  22   4     0.42836   183.26363   181.76651 
  13  22   5     0.42361   121.77495   119.34171 
  13  22   6     0.41802     7.61723     7.41239 
  13  22   7     0.41169   626.98832   614.84336 
  13  22   8     0.40472    19.15852    18.94234 
  13  22   9     0.39725   974.45407   956.72594 
  13  22  10     0.38936    44.18224    44.17333 
  13  22  11     0.38117   263.98058   266.39297 
  13  22  12     0.37276   391.67111   418.75725 
  13  23   1     0.42528     7.06360     6.94928 
  13  23   2     0.42371   146.73778   143.87806 
  13  23   3     0.42114    24.30340    23.63710 
  13  23   4     0.41761    78.36445    76.27329 
  13  23   5     0.41321    45.27769    44.09095 
  13  23   6     0.40802    23.99560    23.55294 
  13  23   7     0.40212     4.55883     4.44002 
  13  23   8     0.39563    20.67590    20.45621 
  13  23   9     0.38863     5.46278     5.45613 
  13  23  10     0.38124   386.40846   390.03412 
  13  23  11     0.37354    30.07804    31.67773 
  13  24   1     0.41431   158.46015   155.12343 
  13  24   2     0.41286    53.23074    51.87417 
  13  24   3     0.41048  1129.29123  1098.73111 
  13  24   4     0.40721     1.57991     1.55102 
  13  24   5     0.40313    88.04602    86.39309 
  13  24   6     0.39830     8.90124     8.69324 
  13  24   7     0.39281   663.26594   661.62791 
  13  24   8     0.38675    13.70546    13.74208 
  13  24   9     0.38021   689.77726   695.84633 
  13  24  10     0.37328   287.23764   304.08847 
  13  25   1     0.40373    80.60030    79.51082 
  13  25   2     0.40239     0.55097     0.53661 
  13  25   3     0.40018     0.96671     0.94998 
  13  25   4     0.39716   211.28662   207.60294 
  13  25   5     0.39336    24.33246    24.23678 
  13  25   6     0.38887     4.94798     4.94260 
  13  25   7     0.38376     8.34477     8.40333 
  13  25   8     0.37810    14.04442    14.23404 
  13  25   9     0.37198    45.92266    49.77718 
  13  26   1     0.39354   248.15999   247.13001 
  13  26   2     0.39230    10.81703    10.80647 
  13  26   3     0.39025  1219.38354  1216.56343 
  13  26   4     0.38744    62.54509    62.85554 
  13  26   5     0.38392     5.05126     5.08113 
  13  26   6     0.37974    24.66479    24.83677 
  13  26   7     0.37497   371.51304   382.81578 
  13  27   1     0.38372    13.42696    13.52357 
  13  27   2     0.38257   107.52703   108.39447 
  13  27   3     0.38067    38.37269    38.69460 
  13  27   4     0.37807    17.00087    17.23222 
  13  27   5     0.37479    15.96429    16.48119 
  13  28   1     0.37428    98.94573   102.78161 
  13  28   2     0.37321    62.37599    66.12450 
  14   0   0     0.62940   229.61748   229.69785 
  14   0   1     0.62770    32.89101    32.77241 
  14   0   2     0.62270  1628.17661  1610.15996 
  14   0   3     0.61462    26.55110    26.28137 
  14   0   4     0.60382   663.29764   659.13246 
  14   0   5     0.59074    78.07408    77.82650 
  14   0   6     0.57585    11.83093    11.63691 
  14   0   7     0.55962     4.02113     3.96202 
  14   0   8     0.54250   389.89683   384.70715 
  14   0   9     0.52487   291.79145   293.70591 
  14   0  10     0.50707    40.14861    40.68677 
  14   0  11     0.48936    52.65924    53.80239 
  14   0  12     0.47194    87.54354    90.15700 
  14   0  13     0.45497     0.30098     0.30474 
  14   0  14     0.43855   424.25244   423.89404 
  14   0  15     0.42276    46.91458    45.97332 
  14   0  16     0.40763    18.14525    17.83239 
  14   0  17     0.39318    79.31410    79.03348 
  14   0  18     0.37942   208.00734   209.27866 
  14   1   0     0.62861   929.33998   931.96351 
  14   1   1     0.62692    14.85295    14.68673 
  14   1   2     0.62194  1736.47880  1720.59760 
  14   1   3     0.61389    95.95927    94.78319 
  14   1   4     0.60313   500.23620   498.68822 
  14   1   5     0.59009     4.32611     4.30944 
  14   1   6     0.57524    12.02540    11.79326 
  14   1   7     0.55907    14.57809    14.31905 
  14   1   8     0.54199    14.90460    14.71291 
  14   1   9     0.52442    17.40826    17.54843 
  14   1  10     0.50666   189.98985   192.24982 
  14   1  11     0.48899   174.89075   178.52415 
  14   1  12     0.47161    41.82930    43.15586 
  14   1  13     0.45468    57.53021    58.15972 
  14   1  14     0.43829     0.23511     0.23465 
  14   1  15     0.42252     3.91803     3.84130 
  14   1  16     0.40741     1.38240     1.35825 
  14   1  17     0.39299     0.90568     0.90295 
  14   1  18     0.37925     5.80042     5.83741 
  14   2   0     0.62627   134.84509   133.51462 
  14   2   1     0.62460   396.90396   392.55979 
  14   2   2     0.61967   108.67007   108.15047 
  14   2   3     0.61171    17.12436    16.86220 
  14   2   4     0.60106   159.24908   157.31774 
  14   2   5     0.58815     3.17533     3.14845 
  14   2   6     0.57345   122.55750   120.91282 
  14   2   7     0.55742   987.65567   971.73469 
  14   2   8     0.54049  1931.03695  1907.88413 
  14   2   9     0.52306     1.52163     1.52548 
  14   2  10     0.50544   357.29763   358.95369 
  14   2  11     0.48789   318.61960   323.25025 
  14   2  12     0.47062   247.58584   257.12466 
  14   2  13     0.45379   226.78693   229.13299 
  14   2  14     0.43749  1615.48352  1603.20315 
  14   2  15     0.42181   284.12737   277.30007 
  14   2  16     0.40677   132.21878   129.44763 
  14   2  17     0.39241    78.81283    78.71284 
  14   2  18     0.37873   662.75886   669.23016 
  14   3   0     0.62243   470.76043   465.47758 
  14   3   1     0.62079    61.22189    60.91867 
  14   3   2     0.61595  1596.91326  1578.80784 
  14   3   3     0.60813     7.21009     7.05377 
  14   3   4     0.59766   259.53804   253.94545 
  14   3   5     0.58497    59.85054    58.55207 
  14   3   6     0.57050    63.96506    62.90668 
  14   3   7     0.55471    10.26642    10.09939 
  14   3   8     0.53802    10.85841    10.77336 
  14   3   9     0.52081   165.37693   165.81935 
  14   3  10     0.50341   463.57156   465.61604 
  14   3  11     0.48607   213.65576   219.05399 
  14   3  12     0.46899    95.49753    98.90678 
  14   3  13     0.45232    10.60945    10.78428 
  14   3  14     0.43618    18.54957    18.39890 
  14   3  15     0.42063    10.69748    10.39275 
  14   3  16     0.40572    48.66506    47.65514 
  14   3  17     0.39146    23.40756    23.34673 
  14   3  18     0.37788    27.09837    27.47708 
  14   4   0     0.61717   237.23383   237.89958 
  14   4   1     0.61557    64.28063    63.41717 
  14   4   2     0.61085  2286.08037  2241.42817 
  14   4   3     0.60322    24.03157    23.94496 
  14   4   4     0.59300  1065.12415  1056.87842 
  14   4   5     0.58060   108.23383   107.88266 
  14   4   6     0.56644    62.18055    61.40846 
  14   4   7     0.55097    14.29048    14.22614 
  14   4   8     0.53461  1031.51489  1030.22494 
  14   4   9     0.51772   605.34595   613.78811 
  14   4  10     0.50062   254.93067   258.42961 
  14   4  11     0.48355   157.99824   162.60517 
  14   4  12     0.46672   360.60108   368.82273 
  14   4  13     0.45029     2.69452     2.73360 
  14   4  14     0.43436   997.94016   992.17071 
  14   4  15     0.41899    92.29321    90.09959 
  14   4  16     0.40425    74.78202    73.98236 
  14   4  17     0.39015   132.54337   132.28961 
  14   4  18     0.37669   418.76088   423.86821 
  14   5   0     0.61060   582.63993   571.73234 
  14   5   1     0.60905    42.00691    41.32675 
  14   5   2     0.60448   434.06292   432.47649 
  14   5   3     0.59708     0.05398     0.05263 
  14   5   4     0.58717    33.88166    33.22457 
  14   5   5     0.57512    77.30542    75.84192 
  14   5   6     0.56135    45.99242    45.00422 
  14   5   7     0.54628   517.24391   513.14434 
  14   5   8     0.53032   535.63338   526.30623 
  14   5   9     0.51382    70.41355    70.84104 
  14   5  10     0.49709   341.86608   345.52687 
  14   5  11     0.48037   286.24981   291.02803 
  14   5  12     0.46386   111.88868   113.90543 
  14   5  13     0.44772   159.06131   159.32184 
  14   5  14     0.43205    45.74271    44.91975 
  14   5  15     0.41692    62.73955    61.22361 
  14   5  16     0.40239    15.91549    15.50057 
  14   5  17     0.38847     2.00806     2.00617 
  14   5  18     0.37518     0.45940     0.47233 
  14   6   0     0.60285     0.07349     0.07330 
  14   6   1     0.60136   259.97160   257.12455 
  14   6   2     0.59696   431.70798   421.09460 
  14   6   3     0.58983    11.43032    11.38004 
  14   6   4     0.58026   333.41366   332.03951 
  14   6   5     0.56862     0.00527     0.00519 
  14   6   6     0.55531   146.62476   144.63195 
  14   6   7     0.54071   874.22735   864.66433 
  14   6   8     0.52522  1259.37791  1263.56540 
  14   6   9     0.50918    18.51689    18.68309 
  14   6  10     0.49288   167.11763   171.35307 
  14   6  11     0.47657   380.48972   390.54669 
  14   6  12     0.46044   120.54098   121.02260 
  14   6  13     0.44464   235.53407   235.66343 
  14   6  14     0.42927  1128.78171  1113.55871 
  14   6  15     0.41443   167.89481   164.39590 
  14   6  16     0.40014   139.97057   137.55246 
  14   6  17     0.38645    42.70209    42.68328 
  14   6  18     0.37336   630.14004   665.96354 
  14   7   0     0.59406    20.22025    19.83565 
  14   7   1     0.59263    86.36717    85.92638 
  14   7   2     0.58842   595.66953   591.03034 
  14   7   3     0.58159    65.64388    64.90016 
  14   7   4     0.57241     0.12579     0.12450 
  14   7   5     0.56123   441.15793   431.88963 
  14   7   6     0.54841   648.44101   640.94014 
  14   7   7     0.53434    47.49614    47.36825 
  14   7   8     0.51938    77.21257    76.55260 
  14   7   9     0.50385   527.59615   529.72605 
  14   7  10     0.48804   929.13892   943.24131 
  14   7  11     0.47219   253.85031   260.93926 
  14   7  12     0.45648   200.40711   203.72760 
  14   7  13     0.44107     0.76245     0.76405 
  14   7  14     0.42606    40.14962    39.47313 
  14   7  15     0.41154    53.54804    52.50432 
  14   7  16     0.39754   135.57048   132.75649 
  14   7  17     0.38410    74.95761    75.26287 
  14   8   0     0.58438   119.08678   116.97006 
  14   8   1     0.58302    14.73403    14.68043 
  14   8   2     0.57900  1260.66375  1248.13156 
  14   8   3     0.57249    53.95027    53.34719 
  14   8   4     0.56373   658.99783   654.17515 
  14   8   5     0.55304   181.45254   180.17929 
  14   8   6     0.54077    77.52937    76.69167 
  14   8   7     0.52726   114.65823   113.45372 
  14   8   8     0.51287   822.16183   827.23811 
  14   8   9     0.49790   597.73667   603.96197 
  14   8  10     0.48263   339.97677   351.42131 
  14   8  11     0.46728   207.55128   211.88916 
  14   8  12     0.45205   436.13011   441.92734 
  14   8  13     0.43707    13.38636    13.28769 
  14   8  14     0.42245   855.03442   838.19747 
  14   8  15     0.40828    41.06137    40.26074 
  14   8  16     0.39460   131.96539   131.61771 
  14   8  17     0.38145    88.40940    89.28984 
  14   9   0     0.57395   356.73382   352.46527 
  14   9   1     0.57267   122.06366   120.48633 
  14   9   2     0.56886    28.92980    28.49710 
  14   9   3     0.56268     1.49026     1.47389 
  14   9   4     0.55436     3.62690     3.56106 
  14   9   5     0.54418    21.18103    20.99701 
  14   9   6     0.53248    35.43855    35.20755 
  14   9   7     0.51957   668.75918   662.60987 
  14   9   8     0.50578   838.08403   842.13582 
  14   9   9     0.49141    14.31656    14.56917 
  14   9  10     0.47671   196.39667   201.60823 
  14   9  11     0.46190   223.38955   225.86396 
  14   9  12     0.44717    83.28988    83.52832 
  14   9  13     0.43265   228.68992   226.38190 
  14   9  14     0.41846   112.76741   109.82754 
  14   9  15     0.40467   143.62764   142.04165 
  14   9  16     0.39134    77.26359    77.03725 
  14   9  17     0.37851    15.49644    15.67295 
  14  10   0     0.56294    14.27697    14.13442 
  14  10   1     0.56173   153.75316   150.62455 
  14  10   2     0.55814   368.14606   360.54541 
  14  10   3     0.55230    19.67193    19.59519 
  14  10   4     0.54442   439.76326   436.17934 
  14  10   5     0.53477    79.81012    79.75133 
  14  10   6     0.52365   432.54604   434.99983 
  14  10   7     0.51136   761.21545   762.20775 
  14  10   8     0.49820  1357.14561  1372.53404 
  14  10   9     0.48444   110.33147   113.03632 
  14  10  10     0.47034   454.71909   472.78393 
  14  10  11     0.45610   281.22910   285.80764 
  14  10  12     0.44190   333.02038   334.06817 
  14  10  13     0.42788   117.73312   117.20467 
  14  10  14     0.41414  1016.68219   994.73850 
  14  10  15     0.40076    79.52555    78.25043 
  14  10  16     0.38780   294.41499   295.35921 
  14  10  17     0.37530     3.37046     3.46101 
  14  11   0     0.55148    18.32418    18.23054 
  14  11   1     0.55034   249.46192   247.20430 
  14  11   2     0.54696   858.79712   848.67609 
  14  11   3     0.54146     0.12025     0.11879 
  14  11   4     0.53403    39.97741    39.80749 
  14  11   5     0.52492   107.05154   107.72110 
  14  11   6     0.51438   343.92321   347.29974 
  14  11   7     0.50272    60.34286    61.02915 
  14  11   8     0.49020     5.84765     5.97283 
  14  11   9     0.47708   335.69045   344.68481 
  14  11  10     0.46359   589.36107   600.31782 
  14  11  11     0.44994   117.71674   119.23052 
  14  11  12     0.43629   107.71392   106.83753 
  14  11  13     0.42278    22.78160    22.32200 
  14  11  14     0.40951   103.12170   100.16911 
  14  11  15     0.39656   122.02205   120.43715 
  14  11  16     0.38399   165.31700   166.18580 
  14  12   0     0.53969   458.46388   451.46470 
  14  12   1     0.53862     2.12037     2.10595 
  14  12   2     0.53545  1440.84541  1435.16677 
  14  12   3     0.53029    66.73891    65.58573 
  14  12   4     0.52331   677.07587   679.94112 
  14  12   5     0.51472   178.14275   180.49745 
  14  12   6     0.50478    92.62861    93.24501 
  14  12   7     0.49374   224.86890   232.07736 
  14  12   8     0.48187   247.24216   254.32635 
  14  12   9     0.46939   332.26727   345.58977 
  14  12  10     0.45653   135.89276   138.12728 
  14  12  11     0.44347   152.96298   153.42169 
  14  12  12     0.43039   227.64531   224.42494 
  14  12  13     0.41740    14.28035    13.90421 
  14  12  14     0.40461   421.58261   417.02917 
  14  12  15     0.39211     0.63477     0.63427 
  14  12  16     0.37995   179.77392   181.20434 
  14  13   0     0.52770  1102.61977  1089.14147 
  14  13   1     0.52670    95.71783    94.86915 
  14  13   2     0.52374   403.90968   406.31767 
  14  13   3     0.51890   136.14822   135.82071 
  14  13   4     0.51236   206.69583   207.64381 
  14  13   5     0.50429   105.18718   105.70589 
  14  13   6     0.49493   115.72225   119.14935 
  14  13   7     0.48451   283.55664   290.47064 
  14  13   8     0.47327   426.66081   435.56218 
  14  13   9     0.46144    24.34753    24.46829 
  14  13  10     0.44920    16.30083    16.40553 
  14  13  11     0.43675   116.16889   115.33145 
  14  13  12     0.42423    18.53746    18.19241 
  14  13  13     0.41178   271.49037   266.20128 
  14  13  14     0.39949   113.48518   111.63851 
  14  13  15     0.38744   158.91143   159.70199 
  14  13  16     0.37569   161.54700   165.16622 
  14  14   0     0.51561     0.47072     0.47894 
  14  14   1     0.51468    15.72601    15.92716 
  14  14   2     0.51191    29.00083    29.07360 
  14  14   3     0.50739    10.31879    10.45849 
  14  14   4     0.50127   211.07653   214.67000 
  14  14   5     0.49370    46.73934    48.22858 
  14  14   6     0.48491   583.29847   597.50261 
  14  14   7     0.47510   217.48066   222.04773 
  14  14   8     0.46449  1087.54350  1110.11532 
  14  14   9     0.45328   131.07823   132.69966 
  14  14  10     0.44167   757.50028   760.41668 
  14  14  11     0.42982   124.86510   122.98273 
  14  14  12     0.41787   572.73848   557.34329 
  14  14  13     0.40595    30.28354    29.60776 
  14  14  14     0.39416   753.71262   751.42577 
  14  14  15     0.38257    10.47657    10.56104 
  14  15   0     0.50351   369.98121   371.53472 
  14  15   1     0.50264   312.84470   316.75596 
  14  15   2     0.50006  2322.91215  2353.95725 
  14  15   3     0.49584     4.72193     4.82742 
  14  15   4     0.49012   479.27881   489.59489 
  14  15   5     0.48305    37.49289    38.69706 
  14  15   6     0.47480    61.03328    62.18956 
  14  15   7     0.46558   157.15445   161.45165 
  14  15   8     0.45558    66.43867    67.47235 
  14  15   9     0.44499   299.35834   299.85835 
  14  15  10     0.43399   415.82967   411.01598 
  14  15  11     0.42273    81.27087    79.65121 
  14  15  12     0.41135    79.22499    77.62134 
  14  15  13     0.39997    32.25656    31.70600 
  14  15  14     0.38867   121.31701   121.16533 
  14  15  15     0.37755   164.60702   166.80712 
  14  16   0     0.49146   913.35110   929.33824 
  14  16   1     0.49066    11.09639    11.32349 
  14  16   2     0.48826  1539.14747  1564.46179 
  14  16   3     0.48433     1.28531     1.31736 
  14  16   4     0.47899   946.98485   963.30134 
  14  16   5     0.47238     2.81650     2.89025 
  14  16   6     0.46466   443.34665   453.48358 
  14  16   7     0.45601   129.51805   131.60423 
  14  16   8     0.44660   242.53703   242.29444 
  14  16   9     0.43662    57.05440    56.63047 
  14  16  10     0.42621   335.61028   330.17133 
  14  16  11     0.41553   101.34558    99.18970 
  14  16  12     0.40471   402.90545   398.40514 
  14  16  13     0.39385    28.45916    28.34709 
  14  16  14     0.38305   326.38464   329.00211 
  14  16  15     0.37239    17.20178    18.51910 
  14  17   0     0.47955  1551.02627  1572.98243 
  14  17   1     0.47880   150.77541   153.44583 
  14  17   2     0.47657   748.46805   768.25117 
  14  17   3     0.47292    28.08234    28.70780 
  14  17   4     0.46794   346.59571   353.64791 
  14  17   5     0.46177    14.13320    14.26941 
  14  17   6     0.45456   128.20452   129.57038 
  14  17   7     0.44645   509.47209   508.29011 
  14  17   8     0.43761   503.65306   500.06537 
  14  17   9     0.42820     0.38043     0.37779 
  14  17  10     0.41837    34.86307    33.94383 
  14  17  11     0.40825   130.93464   128.39419 
  14  17  12     0.39797    35.74893    34.91411 
  14  17  13     0.38764   273.81636   274.96081 
  14  17  14     0.37733   127.22795   128.82198 
  14  18   0     0.46781    33.19586    33.84944 
  14  18   1     0.46712    19.67367    20.09943 
  14  18   2     0.46504    10.90875    11.20345 
  14  18   3     0.46165     0.67595     0.68124 
  14  18   4     0.45702   124.12474   125.71949 
  14  18   5     0.45127    15.57045    15.70492 
  14  18   6     0.44452   454.09934   454.20968 
  14  18   7     0.43693     7.61683     7.56209 
  14  18   8     0.42863   288.83629   285.94031 
  14  18   9     0.41978   172.75803   168.58646 
  14  18  10     0.41051   422.01736   410.68011 
  14  18  11     0.40094    49.68673    48.88791 
  14  18  12     0.39119   360.53777   359.37225 
  14  18  13     0.38136     1.22415     1.23608 
  14  19   0     0.45630   178.80953   181.78221 
  14  19   1     0.45565   148.93711   151.26804 
  14  19   2     0.45373  1243.80787  1256.63390 
  14  19   3     0.45057    53.48159    54.21996 
  14  19   4     0.44627   145.18790   144.68208 
  14  19   5     0.44091   256.16968   256.37670 
  14  19   6     0.43461   196.96470   196.50311 
  14  19   7     0.42750     4.80698     4.79480 
  14  19   8     0.41972     1.22009     1.19097 
  14  19   9     0.41140   455.88907   446.79475 
  14  19  10     0.40266   519.96802   507.32545 
  14  19  11     0.39362    89.17753    88.80707 
  14  19  12     0.38438   130.20206   130.29160 
  14  19  13     0.37504    34.11623    35.12828 
  14  20   0     0.44504   725.97666   727.25191 
  14  20   1     0.44444    71.68421    71.69136 
  14  20   2     0.44265   712.78859   714.82796 
  14  20   3     0.43972     0.38916     0.38900 
  14  20   4     0.43571   707.75915   703.29181 
  14  20   5     0.43072     3.54708     3.49898 
  14  20   6     0.42484   821.68593   807.41706 
  14  20   7     0.41820   290.83085   283.06192 
  14  20   8     0.41091   276.81045   270.24385 
  14  20   9     0.40309    10.97231    10.76137 
  14  20  10     0.39486   729.46769   726.43625 
  14  20  11     0.38632    96.54244    96.35459 
  14  20  12     0.37758   727.60314   737.39460 
  14  21   0     0.43405   405.06460   400.70856 
  14  21   1     0.43350   155.36611   153.24960 
  14  21   2     0.43184    48.29780    47.40050 
  14  21   3     0.42912     2.25117     2.22265 
  14  21   4     0.42539     3.64873     3.58937 
  14  21   5     0.42074    12.00633    11.66475 
  14  21   6     0.41526     2.21967     2.17251 
  14  21   7     0.40905   595.90386   580.46088 
  14  21   8     0.40222   646.21591   629.27939 
  14  21   9     0.39487    10.86585    10.81922 
  14  21  10     0.38712    99.19403    99.68721 
  14  21  11     0.37907   103.17678   103.92253 
  14  22   0     0.42336   247.02575   241.79569 
  14  22   1     0.42285    39.91366    39.09513 
  14  22   2     0.42131    73.64076    71.66231 
  14  22   3     0.41878   100.17543    97.69605 
  14  22   4     0.41531   270.04483   264.29774 
  14  22   5     0.41098   217.69765   212.66634 
  14  22   6     0.40587   785.61063   768.41992 
  14  22   7     0.40006    18.01952    17.70908 
  14  22   8     0.39367   169.17136   168.46835 
  14  22   9     0.38677   403.39674   404.56921 
  14  22  10     0.37948   520.05781   523.23711 
  14  23   0     0.41298     1.97341     1.92223 
  14  23   1     0.41250    86.08901    84.06800 
  14  23   2     0.41107   163.35676   159.70202 
  14  23   3     0.40872    20.52937    20.06604 
  14  23   4     0.40550     1.22729     1.20441 
  14  23   5     0.40147   113.07963   110.83186 
  14  23   6     0.39669   280.00144   276.14078 
  14  23   7     0.39127     5.63419     5.61686 
  14  23   8     0.38528    48.79956    48.49184 
  14  23   9     0.37881   234.18970   236.32909 
  14  24   0     0.40291   730.57283   714.91578 
  14  24   1     0.40247   195.74362   190.69372 
  14  24   2     0.40114   362.52852   356.41032 
  14  24   3     0.39896    26.36466    25.86589 
  14  24   4     0.39596   394.11590   389.39542 
  14  24   5     0.39220    69.67724    69.61776 
  14  24   6     0.38775   631.89379   634.13423 
  14  24   7     0.38268   667.90002   673.18443 
  14  24   8     0.37707    28.83526    29.17702 
  14  25   0     0.39317   150.28687   149.76045 
  14  25   1     0.39275    37.25673    37.17143 
  14  25   2     0.39152    25.61986    25.55737 
  14  25   3     0.38949    13.48845    13.48671 
  14  25   4     0.38669     0.02712     0.02718 
  14  25   5     0.38319     9.43443     9.51127 
  14  25   6     0.37904    15.32353    15.43731 
  14  25   7     0.37429   147.04100   152.70189 
  14  26   0     0.38373   257.95427   259.79715 
  14  26   1     0.38335    66.59507    67.13921 
  14  26   2     0.38220    29.76418    30.02755 
  14  26   3     0.38031   152.00864   153.35677 
  14  26   4     0.37771   315.71385   320.08579 
  14  26   5     0.37444   302.98586   314.02240 
  14  27   0     0.37462   136.34955   141.02256 
  14  27   1     0.37426    44.19060    45.91397 
  14  27   2     0.37319   305.65738   324.12617 
  15   0   1     0.58606     3.00607     2.93945 
  15   0   2     0.58198   341.56338   337.88757 
  15   0   3     0.57537    59.48509    58.33688 
  15   0   4     0.56648     7.97102     7.87390 
  15   0   5     0.55564     2.42455     2.39162 
  15   0   6     0.54319   235.78606   233.22791 
  15   0   7     0.52951   211.43450   208.62594 
  15   0   8     0.51493     2.00679     2.03669 
  15   0   9     0.49979   247.62169   250.88005 
  15   0  10     0.48435   463.95318   475.49283 
  15   0  11     0.46884    55.73572    57.59392 
  15   0  12     0.45346     8.50649     8.60063 
  15   0  13     0.43834   547.97328   547.09047 
  15   0  14     0.42360   181.99291   178.34809 
  15   0  15     0.40932   360.90388   350.83446 
  15   0  16     0.39554   112.21295   111.08590 
  15   0  17     0.38230   309.39813   312.06477 
  15   1   1     0.58542   678.38030   663.34240 
  15   1   2     0.58136     9.39854     9.30696 
  15   1   3     0.57477   367.86076   361.86053 
  15   1   4     0.56591    42.42411    41.73526 
  15   1   5     0.55509    33.41463    32.94380 
  15   1   6     0.54268    85.44761    84.35310 
  15   1   7     0.52904    15.04249    14.85628 
  15   1   8     0.51450    98.74909    99.83912 
  15   1   9     0.49940     0.61516     0.62355 
  15   1  10     0.48399   231.73573   237.93664 
  15   1  11     0.46852     0.07561     0.07771 
  15   1  12     0.45317   116.97823   118.56368 
  15   1  13     0.43808    24.14037    24.05690 
  15   1  14     0.42336    39.28663    38.45477 
  15   1  15     0.40910    11.32374    11.02442 
  15   1  16     0.39534     5.33507     5.28939 
  15   1  17     0.38212    54.20321    54.69415 
  15   2   1     0.58353  1318.46892  1307.53599 
  15   2   2     0.57951    29.58035    29.34315 
  15   2   3     0.57298  1969.28505  1940.13640 
  15   2   4     0.56420  1864.16331  1853.08425 
  15   2   5     0.55348   642.69415   634.24588 
  15   2   6     0.54118     9.63427     9.52502 
  15   2   7     0.52764   853.98295   843.79660 
  15   2   8     0.51322    72.69217    73.14848 
  15   2   9     0.49822   719.82927   728.07006 
  15   2  10     0.48292     8.55169     8.83311 
  15   2  11     0.46755   349.19660   356.08740 
  15   2  12     0.45229  1605.59185  1631.56165 
  15   2  13     0.43728   569.81856   565.42452 
  15   2  14     0.42265    28.38110    27.82131 
  15   2  15     0.40845    75.64045    74.09815 
  15   2  16     0.39476     1.50278     1.49775 
  15   2  17     0.38159   128.98660   130.28619 
  15   3   1     0.58042   161.54982   161.00003 
  15   3   2     0.57646     5.02116     4.96396 
  15   3   3     0.57003   341.17861   336.88173 
  15   3   4     0.56139    47.82331    46.78843 
  15   3   5     0.55083    60.09586    59.77426 
  15   3   6     0.53869   239.30056   237.63318 
  15   3   7     0.52534     1.86593     1.86956 
  15   3   8     0.51110   146.96934   147.23562 
  15   3   9     0.49628     4.87697     4.96513 
  15   3  10     0.48115   176.00820   180.21740 
  15   3  11     0.46594    71.89167    73.72772 
  15   3  12     0.45083   189.09161   191.31713 
  15   3  13     0.43597   109.89433   109.04658 
  15   3  14     0.42146     9.53920     9.28859 
  15   3  15     0.40738     8.18559     8.04182 
  15   3  16     0.39379     3.75242     3.73733 
  15   3  17     0.38072   161.75398   163.10456 
  15   4   1     0.57615    84.71405    83.58429 
  15   4   2     0.57228   486.81548   482.47406 
  15   4   3     0.56599   333.78543   328.49660 
  15   4   4     0.55752     0.14620     0.14376 
  15   4   5     0.54717    42.08205    41.56227 
  15   4   6     0.53527   232.31703   231.75138 
  15   4   7     0.52217   389.49098   386.66896 
  15   4   8     0.50818     9.25704     9.37574 
  15   4   9     0.49360   391.51312   403.77711 
  15   4  10     0.47871  1017.05114  1035.16312 
  15   4  11     0.46372    95.16340    96.90637 
  15   4  12     0.44882    40.24060    40.41904 
  15   4  13     0.43415  1001.48484   992.28773 
  15   4  14     0.41982   328.84268   320.84379 
  15   4  15     0.40590   752.75765   736.17811 
  15   4  16     0.39245   172.82830   172.59373 
  15   4  17     0.37951   686.19153   690.42518 
  15   5   1     0.57080    43.90607    43.14003 
  15   5   2     0.56703     0.00709     0.00701 
  15   5   3     0.56091    71.96939    70.68155 
  15   5   4     0.55266   306.27326   305.20787 
  15   5   5     0.54258     1.45818     1.43908 
  15   5   6     0.53097   183.33020   180.30266 
  15   5   7     0.51817    40.97606    41.37713 
  15   5   8     0.50449   190.88972   191.99616 
  15   5   9     0.49022    82.62337    84.38907 
  15   5  10     0.47563   303.74238   311.05364 
  15   5  11     0.46092    49.31807    49.47585 
  15   5  12     0.44628    30.07720    29.97396 
  15   5  13     0.43185     0.12180     0.11954 
  15   5  14     0.41773    39.08096    38.03386 
  15   5  15     0.40401     8.11090     8.01555 
  15   5  16     0.39074     0.14773     0.14720 
  15   5  17     0.37796     3.38004     3.42704 
  15   6   1     0.56445   508.90596   505.85428 
  15   6   2     0.56080    47.30252    46.50697 
  15   6   3     0.55488  1019.99248  1004.53290 
  15   6   4     0.54689   979.98757   968.68237 
  15   6   5     0.53712   443.04745   436.46482 
  15   6   6     0.52585    77.43920    77.17788 
  15   6   7     0.51340   747.87645   752.35608 
  15   6   8     0.50009   197.91563   200.56829 
  15   6   9     0.48618   727.08528   745.07577 
  15   6  10     0.47193    14.01637    14.43581 
  15   6  11     0.45756   409.36532   412.21790 
  15   6  12     0.44322  1389.16552  1393.98560 
  15   6  13     0.42908   492.08522   485.95567 
  15   6  14     0.41522    36.86918    36.08662 
  15   6  15     0.40174    70.53613    68.90397 
  15   6  16     0.38869     2.33653     2.33359 
  15   6  17     0.37610   103.50100   105.28471 
  15   7   1     0.55721    97.28408    95.77695 
  15   7   2     0.55370    54.21016    53.36762 
  15   7   3     0.54800    72.39930    71.53334 
  15   7   4     0.54030    52.45375    51.75114 
  15   7   5     0.53087   577.00345   567.12575 
  15   7   6     0.51998   406.39758   403.85363 
  15   7   7     0.50794     9.42736     9.55000 
  15   7   8     0.49504   175.01856   180.04416 
  15   7   9     0.48154    24.50138    25.15227 
  15   7  10     0.46768   100.55376   102.50951 
  15   7  11     0.45368   195.60192   197.63125 
  15   7  12     0.43969   217.28418   217.21085 
  15   7  13     0.42587   238.46003   234.38708 
  15   7  14     0.41232     0.20188     0.19738 
  15   7  15     0.39911     3.17215     3.11615 
  15   7  16     0.38630     1.25577     1.25307 
  15   7  17     0.37394   290.37878   303.33099 
  15   8   1     0.54920   287.49902   283.68813 
  15   8   2     0.54584   229.98046   228.07110 
  15   8   3     0.54037   501.70606   495.23634 
  15   8   4     0.53299     2.04645     2.03475 
  15   8   5     0.52393   194.55008   195.81115 
  15   8   6     0.51345    50.94966    51.25093 
  15   8   7     0.50185   514.58200   524.37231 
  15   8   8     0.48939    60.80552    62.12848 
  15   8   9     0.47634   488.36642   501.19124 
  15   8  10     0.46291   864.53401   876.85292 
  15   8  11     0.44932   230.48229   232.14771 
  15   8  12     0.43572    98.62724    97.99714 
  15   8  13     0.42226   989.31720   969.12800 
  15   8  14     0.40904   254.34823   247.78216 
  15   8  15     0.39613   863.87143   853.41758 
  15   8  16     0.38360   103.42259   104.22735 
  15   9   1     0.54052    44.17605    43.65485 
  15   9   2     0.53732    16.78794    16.56446 
  15   9   3     0.53210   254.79919   252.53742 
  15   9   4     0.52505   208.71243   209.78215 
  15   9   5     0.51638    36.98758    37.72708 
  15   9   6     0.50634    37.24970    37.59846 
  15   9   7     0.49520    29.28343    30.08596 
  15   9   8     0.48322    98.58241   101.63547 
  15   9   9     0.47064    96.38496   100.08789 
  15   9  10     0.45768   253.47743   254.96659 
  15   9  11     0.44453   243.90469   243.96632 
  15   9  12     0.43135     2.72430     2.68034 
  15   9  13     0.41828    17.68621    17.21655 
  15   9  14     0.40541    58.26939    57.23770 
  15   9  15     0.39284     5.30393     5.29035 
  15   9  16     0.38061     0.03423     0.03453 
  15  10   1     0.53129   784.14236   772.76025 
  15  10   2     0.52825     2.82543     2.78714 
  15  10   3     0.52329   945.31258   949.20173 
  15  10   4     0.51658   560.41213   571.70852 
  15  10   5     0.50831   453.50759   459.22150 
  15  10   6     0.49873    14.67663    14.87488 
  15  10   7     0.48808   454.76443   461.75616 
  15  10   8     0.47659   119.51954   122.68125 
  15  10   9     0.46451   400.93998   409.34498 
  15  10  10     0.45204    55.31615    56.04542 
  15  10  11     0.43935   288.89669   288.87033 
  15  10  12     0.42662   871.56033   861.38052 
  15  10  13     0.41396   283.12320   276.77622 
  15  10  14     0.40148    70.48173    69.07175 
  15  10  15     0.38925    75.35918    75.33318 
  15  10  16     0.37735     0.71874     0.72778 
  15  11   1     0.52162    21.82057    21.65789 
  15  11   2     0.51874     9.90809     9.91403 
  15  11   3     0.51404   737.74851   742.97801 
  15  11   4     0.50768    19.14117    19.39513 
  15  11   5     0.49983   212.39227   215.19116 
  15  11   6     0.49071   143.30099   146.20967 
  15  11   7     0.48055    36.38817    37.05119 
  15  11   8     0.46958    58.62640    61.00043 
  15  11   9     0.45801   163.62626   164.28971 
  15  11  10     0.44604    39.09409    38.93915 
  15  11  11     0.43384   228.63929   225.60928 
  15  11  12     0.42156   277.25320   270.10735 
  15  11  13     0.40934   324.71741   315.62638 
  15  11  14     0.39726     0.00092     0.00091 
  15  11  15     0.38540     1.28837     1.27976 
  15  11  16     0.37383     7.24851     7.58727 
  15  12   1     0.51162    45.84842    45.92469 
  15  12   2     0.50890   200.30384   202.36116 
  15  12   3     0.50446   137.15815   137.93578 
  15  12   4     0.49844   117.71517   119.17294 
  15  12   5     0.49100   209.50920   213.51180 
  15  12   6     0.48235   116.79638   120.57186 
  15  12   7     0.47269   505.25140   517.21373 
  15  12   8     0.46224     7.39194     7.48386 
  15  12   9     0.45119   565.00889   569.99657 
  15  12  10     0.43973   369.86301   369.70088 
  15  12  11     0.42803   452.44098   449.88553 
  15  12  12     0.41623   183.96781   180.20319 
  15  12  13     0.40445   836.77826   828.02839 
  15  12  14     0.39278   198.10392   197.63151 
  15  12  15     0.38131   858.58383   866.85685 
  15  13   1     0.50137   958.04527   975.05917 
  15  13   2     0.49881    60.90747    61.74339 
  15  13   3     0.49463     0.00306     0.00316 
  15  13   4     0.48895    84.88535    86.63655 
  15  13   5     0.48192   568.59125   585.09404 
  15  13   6     0.47373     0.01176     0.01200 
  15  13   7     0.46457     3.07839     3.14518 
  15  13   8     0.45464    56.39468    57.00339 
  15  13   9     0.44411    65.77255    65.79564 
  15  13  10     0.43317   243.01966   240.41749 
  15  13  11     0.42198   402.15754   393.08873 
  15  13  12     0.41065     2.18258     2.12636 
  15  13  13     0.39933    57.04510    56.10203 
  15  13  14     0.38809    96.42473    96.53015 
  15  13  15     0.37701     5.37189     5.43528 
  15  14   1     0.49096  1422.33648  1449.75360 
  15  14   2     0.48856   104.52815   106.46825 
  15  14   3     0.48463  1194.52775  1223.44182 
  15  14   4     0.47928   538.02026   546.47829 
  15  14   5     0.47266   883.26514   904.39589 
  15  14   6     0.46493   108.34207   111.16024 
  15  14   7     0.45626   587.04947   596.78930 
  15  14   8     0.44684     2.53488     2.53736 
  15  14   9     0.43683   484.21958   480.76713 
  15  14  10     0.42641    93.03671    91.68716 
  15  14  11     0.41572   483.89512   473.72637 
  15  14  12     0.40488   401.39309   396.44614 
  15  14  13     0.39401   279.80867   278.82203 
  15  14  14     0.38320   140.24488   141.38773 
  15  14  15     0.37253   167.50103   179.86807 
  15  15   1     0.48048   261.00542   265.59626 
  15  15   2     0.47822    33.72474    34.37488 
  15  15   3     0.47453  1376.43976  1400.61402 
  15  15   4     0.46951     3.16231     3.28999 
  15  15   5     0.46328    83.04600    84.52827 
  15  15   6     0.45599   226.70558   230.34981 
  15  15   7     0.44781    56.90476    56.96881 
  15  15   8     0.43889   117.28729   117.22885 
  15  15   9     0.42940   170.15204   167.75613 
  15  15  10     0.41949    59.19113    57.82063 
  15  15  11     0.40929   282.52454   274.67467 
  15  15  12     0.39894   310.33670   304.41288 
  15  15  13     0.38853   275.73405   275.42863 
  15  15  14     0.37815     0.38344     0.38854 
  15  16   1     0.46998    65.79984    68.43882 
  15  16   2     0.46787   132.93604   135.57610 
  15  16   3     0.46441    43.18118    44.04252 
  15  16   4     0.45970   485.49833   486.75714 
  15  16   5     0.45385   156.44587   158.06920 
  15  16   6     0.44699   129.30158   129.56633 
  15  16   7     0.43927   170.54295   170.51522 
  15  16   8     0.43084     0.15310     0.15100 
  15  16   9     0.42186   197.09910   192.44523 
  15  16  10     0.41245   103.03696   100.65479 
  15  16  11     0.40274   313.03152   305.68685 
  15  16  12     0.39287   340.36065   339.45791 
  15  16  13     0.38291   398.46629   401.61169 
  15  16  14     0.37297   129.34733   137.74658 
  15  17   1     0.45953   485.02755   486.07404 
  15  17   2     0.45756     1.39945     1.40921 
  15  17   3     0.45432    65.88558    66.58022 
  15  17   4     0.44991   273.39662   276.83754 
  15  17   5     0.44442   310.38752   310.40829 
  15  17   6     0.43797    62.35509    62.08109 
  15  17   7     0.43070    12.83852    12.66418 
  15  17   8     0.42275   166.20281   162.87474 
  15  17   9     0.41425   128.57589   125.84905 
  15  17  10     0.40533   266.98270   262.50812 
  15  17  11     0.39611   331.45761   327.44721 
  15  17  12     0.38670     1.40723     1.41039 
  15  17  13     0.37720    87.45492    88.51474 
  15  18   1     0.44917   927.70328   933.52633 
  15  18   2     0.44733   204.98396   205.61244 
  15  18   3     0.44430   706.39166   706.42446 
  15  18   4     0.44017   117.98729   117.78125 
  15  18   5     0.43503  1087.89540  1086.81781 
  15  18   6     0.42898   142.95035   141.24486 
  15  18   7     0.42214   780.62586   764.06755 
  15  18   8     0.41464     2.27815     2.23097 
  15  18   9     0.40661   746.81663   730.49279 
  15  18  10     0.39817   268.23697   261.92609 
  15  18  11     0.38942   892.08296   891.94080 
  15  18  12     0.38047   134.10118   135.27290 
  15  19   1     0.43895    45.35242    45.33153 
  15  19   2     0.43723    86.47939    85.81884 
  15  19   3     0.43440   220.69562   219.58327 
  15  19   4     0.43054    26.66500    26.29738 
  15  19   5     0.42572   396.69470   389.98102 
  15  19   6     0.42004   347.95325   338.96175 
  15  19   7     0.41362     0.38544     0.37600 
  15  19   8     0.40656   179.52408   175.56077 
  15  19   9     0.39898    76.75973    75.32535 
  15  19  10     0.39099    64.49050    64.26385 
  15  19  11     0.38270   234.11049   235.95927 
  15  19  12     0.37420   201.97519   210.06137 
  15  20   1     0.42890   334.02635   330.18360 
  15  20   2     0.42729     0.36468     0.36362 
  15  20   3     0.42465   125.73803   123.45739 
  15  20   4     0.42104   362.83360   352.77941 
  15  20   5     0.41653   371.43582   363.40283 
  15  20   6     0.41121     1.32253     1.29454 
  15  20   7     0.40518   169.35301   166.79221 
  15  20   8     0.39854    53.72526    52.52104 
  15  20   9     0.39139   165.43220   164.96805 
  15  20  10     0.38384    36.66170    36.89963 
  15  20  11     0.37598   408.49473   416.15728 
  15  21   1     0.41904     3.32441     3.24599 
  15  21   2     0.41754     0.22957     0.22346 
  15  21   3     0.41508   509.99583   499.24283 
  15  21   4     0.41170   138.72713   136.04089 
  15  21   5     0.40748    21.54482    21.17226 
  15  21   6     0.40250    33.14287    32.29355 
  15  21   7     0.39684    51.06059    50.30404 
  15  21   8     0.39059    89.49513    89.19876 
  15  21   9     0.38385    91.82929    92.41601 
  15  21  10     0.37672   125.50788   127.02227 
  15  22   1     0.40940   690.85762   671.31616 
  15  22   2     0.40800   193.90066   190.33643 
  15  22   3     0.40570   336.66808   329.71994 
  15  22   4     0.40255    18.59995    18.12915 
  15  22   5     0.39860   775.61638   758.51996 
  15  22   6     0.39393    64.13909    63.89993 
  15  22   7     0.38862   378.22968   377.77347 
  15  22   8     0.38275    21.98054    22.15371 
  15  22   9     0.37640   369.04790   374.22353 
  15  23   1     0.39999   133.62435   131.33814 
  15  23   2     0.39868     6.83100     6.68535 
  15  23   3     0.39654    30.78016    30.38389 
  15  23   4     0.39359     0.95505     0.95109 
  15  23   5     0.38990   261.44228   261.18197 
  15  23   6     0.38553    59.04151    58.63704 
  15  23   7     0.38054     0.02229     0.02248 
  15  23   8     0.37502    42.62849    43.90281 
  15  24   1     0.39082   298.12489   297.05486 
  15  24   2     0.38960    18.39798    18.39394 
  15  24   3     0.38760   117.30315   117.81570 
  15  24   4     0.38485   470.43106   468.59232 
  15  24   5     0.38140   649.00221   655.38293 
  15  24   6     0.37730    26.68275    27.01414 
  15  24   7     0.37262   377.92000   405.10210 
  15  25   1     0.38190    33.91461    34.24083 
  15  25   2     0.38077     9.74970     9.83105 
  15  25   3     0.37890    62.34618    62.87216 
  15  25   4     0.37633     0.56945     0.57782 
  15  25   5     0.37310    58.58836    62.24353 
  15  26   1     0.37324   879.56740   931.76537 
  15  26   2     0.37218   385.31719   416.40115 
  16   0   0     0.55072   800.33219   795.47824 
  16   0   1     0.54959     0.04062     0.04010 
  16   0   2     0.54622   175.05172   173.70940 
  16   0   3     0.54074    33.78131    33.41556 
  16   0   4     0.53334   572.27048   569.24941 
  16   0   5     0.52426     8.77057     8.83833 
  16   0   6     0.51377  1416.68150  1425.01483 
  16   0   7     0.50215    11.82303    12.03170 
  16   0   8     0.48967    42.56832    43.50581 
  16   0   9     0.47659    14.83632    15.22872 
  16   0  10     0.46314   805.54832   818.97352 
  16   0  11     0.44953    59.21541    59.74795 
  16   0  12     0.43592   371.78821   368.99434 
  16   0  13     0.42244     3.36791     3.30153 
  16   0  14     0.40920    28.95271    28.16617 
  16   0  15     0.39628    15.40241    15.21477 
  16   0  16     0.38373   415.77848   418.74991 
  16   1   0     0.55020   344.96499   341.53904 
  16   1   1     0.54906     0.02195     0.02167 
  16   1   2     0.54570   540.02074   535.20105 
  16   1   3     0.54024   219.45207   216.41631 
  16   1   4     0.53287     7.86434     7.81835 
  16   1   5     0.52381   532.60947   535.88975 
  16   1   6     0.51334   153.66464   154.60331 
  16   1   7     0.50175   232.04296   236.47714 
  16   1   8     0.48930   219.85396   224.59933 
  16   1   9     0.47625   317.77020   326.08932 
  16   1  10     0.46283   344.44681   349.03093 
  16   1  11     0.44925   122.52183   123.34470 
  16   1  12     0.43566    14.63165    14.54557 
  16   1  13     0.42220    15.27452    14.95749 
  16   1  14     0.40898    23.38518    22.79448 
  16   1  15     0.39608    44.38250    43.84562 
  16   1  16     0.38356     8.83442     8.90407 
  16   2   0     0.54863   503.34885   497.44536 
  16   2   1     0.54750     3.67062     3.62442 
  16   2   2     0.54417    10.07173     9.98392 
  16   2   3     0.53876    27.72229    27.52488 
  16   2   4     0.53144    37.50416    36.98719 
  16   2   5     0.52245    23.33427    23.24391 
  16   2   6     0.51207   598.60184   600.50794 
  16   2   7     0.50055    73.19978    74.19968 
  16   2   8     0.48819    49.32146    50.11114 
  16   2   9     0.47523    62.21603    63.57157 
  16   2  10     0.46190   581.79492   588.19108 
  16   2  11     0.44839    32.36859    32.40333 
  16   2  12     0.43488   737.36772   736.85345 
  16   2  13     0.42149     5.20323     5.06721 
  16   2  14     0.40834   233.40341   228.78477 
  16   2  15     0.39549    55.55055    55.00956 
  16   2  16     0.38302  2283.67611  2301.91627 
  16   3   0     0.54604   181.86411   180.47292 
  16   3   1     0.54493    73.39885    72.72798 
  16   3   2     0.54165   273.72980   270.33691 
  16   3   3     0.53631   140.40357   138.51216 
  16   3   4     0.52909     0.50015     0.49393 
  16   3   5     0.52022   322.09240   321.13685 
  16   3   6     0.50996   193.07638   193.94800 
  16   3   7     0.49859   503.12814   509.69266 
  16   3   8     0.48637   206.36903   211.14074 
  16   3   9     0.47354    75.99465    77.53601 
  16   3  10     0.46035   251.57771   252.57536 
  16   3  11     0.44697   103.59466   103.79556 
  16   3  12     0.43358    12.37769    12.20586 
  16   3  13     0.42031    58.76793    57.14629 
  16   3  14     0.40727    37.63130    36.95345 
  16   3  15     0.39452     5.16782     5.15500 
  16   3  16     0.38214    15.42827    15.56729 
  16   4   0     0.54248  1176.89090  1161.16076 
  16   4   1     0.54139     5.08872     5.02759 
  16   4   2     0.53817   215.11821   213.56525 
  16   4   3     0.53293     4.26177     4.23713 
  16   4   4     0.52584   882.99992   880.04867 
  16   4   5     0.51713     8.46340     8.60800 
  16   4   6     0.50706  2340.28923  2371.61684 
  16   4   7     0.49587   101.99997   104.25280 
  16   4   8     0.48384    71.51798    73.49619 
  16   4   9     0.47122    69.63788    71.99047 
  16   4  10     0.45821  1295.34015  1299.97393 
  16   4  11     0.44501   106.89352   107.07635 
  16   4  12     0.43179   552.52010   542.26249 
  16   4  13     0.41868    16.94456    16.51733 
  16   4  14     0.40578    75.57964    73.97176 
  16   4  15     0.39317    55.20150    55.00731 
  16   4  16     0.38091   618.94561   624.17423 
  16   5   0     0.53800    64.19530    63.68685 
  16   5   1     0.53694    58.87503    57.95253 
  16   5   2     0.53380   103.32237   102.81626 
  16   5   3     0.52868   269.49456   266.06140 
  16   5   4     0.52176    26.57862    26.35262 
  16   5   5     0.51325   600.15130   603.89193 
  16   5   6     0.50339   186.48035   187.31372 
  16   5   7     0.49244    12.18667    12.43991 
  16   5   8     0.48066   155.12623   158.10598 
  16   5   9     0.46827   400.88683   410.50098 
  16   5  10     0.45550   221.77505   225.18951 
  16   5  11     0.44253    35.01445    35.10758 
  16   5  12     0.42953     0.36201     0.35672 
  16   5  13     0.41661    13.58832    13.28728 
  16   5  14     0.40390    36.37215    35.92021 
  16   5  15     0.39146   163.63456   163.20583 
  16   5  16     0.37935    10.93650    11.00339 
  16   6   0     0.53267   585.01935   581.48111 
  16   6   1     0.53164    19.45539    19.21193 
  16   6   2     0.52859    27.18404    26.83235 
  16   6   3     0.52363     3.91429     3.93622 
  16   6   4     0.51690   141.69597   144.34678 
  16   6   5     0.50862    15.47963    15.65838 
  16   6   6     0.49902   706.69485   716.55901 
  16   6   7     0.48835   212.28429   215.91105 
  16   6   8     0.47685     1.58596     1.62820 
  16   6   9     0.46475   110.31933   112.95677 
  16   6  10     0.45225   757.83055   769.83364 
  16   6  11     0.43955    28.87772    28.87519 
  16   6  12     0.42680   971.70618   963.24848 
  16   6  13     0.41413     0.06573     0.06431 
  16   6  14     0.40163   477.57315   467.14204 
  16   6  15     0.38939    97.14641    97.12907 
  16   6  16     0.37747  2273.22274  2302.92131 
  16   7   0     0.52658    61.32499    60.82388 
  16   7   1     0.52559   219.59423   219.39370 
  16   7   2     0.52264    86.85684    86.72336 
  16   7   3     0.51783    34.04103    34.48906 
  16   7   4     0.51133     8.35027     8.36097 
  16   7   5     0.50331    73.76600    74.13335 
  16   7   6     0.49400   158.99770   164.26794 
  16   7   7     0.48364   589.19322   606.12513 
  16   7   8     0.47246   121.39150   124.48852 
  16   7   9     0.46068     7.34507     7.37290 
  16   7  10     0.44851   101.47476   101.67084 
  16   7  11     0.43611    49.15003    48.75197 
  16   7  12     0.42365     1.96251     1.92364 
  16   7  13     0.41124    97.98865    95.93841 
  16   7  14     0.39900    64.59503    63.39575 
  16   7  15     0.38699   108.86624   109.34977 
  16   7  16     0.37528    29.08094    29.86628 
  16   8   0     0.51980   876.28355   869.14642 
  16   8   1     0.51884     6.01631     6.00853 
  16   8   2     0.51601   291.34599   296.73134 
  16   8   3     0.51138     1.50343     1.50542 
  16   8   4     0.50511   735.26020   739.57936 
  16   8   5     0.49738    35.77648    36.12584 
  16   8   6     0.48839  1543.26833  1570.08770 
  16   8   7     0.47837   124.36917   126.66219 
  16   8   8     0.46755    77.53045    79.06048 
  16   8   9     0.45612    85.27604    86.66775 
  16   8  10     0.44430   765.63820   765.67758 
  16   8  11     0.43224    67.48285    66.39903 
  16   8  12     0.42009   314.38722   306.15672 
  16   8  13     0.40799    24.17566    23.73234 
  16   8  14     0.39602    41.01654    40.52249 
  16   8  15     0.38428    65.72579    65.85764 
  16   8  16     0.37281   345.59608   369.17009 
  16   9   0     0.51243   186.14093   187.04923 
  16   9   1     0.51151   219.50461   219.81754 
  16   9   2     0.50879   288.89626   292.00754 
  16   9   3     0.50436   187.76166   188.74003 
  16   9   4     0.49834     2.40877     2.43754 
  16   9   5     0.49091   458.88197   467.84550 
  16   9   6     0.48226    54.74052    56.47160 
  16   9   7     0.47261    46.70428    47.83894 
  16   9   8     0.46216    82.15041    83.17377 
  16   9   9     0.45112   495.33607   499.93896 
  16   9  10     0.43966   150.00341   149.96458 
  16   9  11     0.42797    17.16321    17.07458 
  16   9  12     0.41617     5.38300     5.27335 
  16   9  13     0.40439    48.90780    48.39848 
  16   9  14     0.39273    30.50553    30.43749 
  16   9  15     0.38127   352.25805   355.59964 
  16  10   0     0.50454   245.80141   247.28728 
  16  10   1     0.50367     5.52180     5.54387 
  16  10   2     0.50107    29.26443    29.72305 
  16  10   3     0.49683     3.68832     3.73406 
  16  10   4     0.49108   122.10547   124.39692 
  16  10   5     0.48396     0.21933     0.22524 
  16  10   6     0.47567   498.93054   511.05244 
  16  10   7     0.46640    86.24084    88.27368 
  16  10   8     0.45635    85.49115    86.91394 
  16  10   9     0.44571    49.61316    49.51026 
  16  10  10     0.43465   681.51721   680.22353 
  16  10  11     0.42334    19.78774    19.36759 
  16  10  12     0.41192   902.92460   884.98757 
  16  10  13     0.40049     0.33723     0.33159 
  16  10  14     0.38915   664.35283   664.00187 
  16  10  15     0.37799    76.02790    77.08089 
  16  11   0     0.49624   428.31713   436.24862 
  16  11   1     0.49541   355.50717   364.71575 
  16  11   2     0.49294   630.11502   646.49808 
  16  11   3     0.48890     3.28504     3.35227 
  16  11   4     0.48341    91.48119    94.21212 
  16  11   5     0.47662    11.14694    11.44202 
  16  11   6     0.46870    38.30251    39.48127 
  16  11   7     0.45982   818.94872   821.36635 
  16  11   8     0.45018    94.70267    96.04523 
  16  11   9     0.43995    32.22028    32.18116 
  16  11  10     0.42931    91.89208    90.63456 
  16  11  11     0.41840    85.04883    82.81595 
  16  11  12     0.40736    14.85182    14.58991 
  16  11  13     0.39630   216.23916   213.59974 
  16  11  14     0.38530    48.68418    48.37258 
  16  11  15     0.37446   197.47438   204.62931 
  16  12   0     0.48760   782.48160   793.27394 
  16  12   1     0.48681     2.26861     2.30823 
  16  12   2     0.48447   778.20084   797.23048 
  16  12   3     0.48063    29.54962    30.11025 
  16  12   4     0.47542  1009.75093  1032.85604 
  16  12   5     0.46895     8.20118     8.48912 
  16  12   6     0.46140  1293.62799  1299.40958 
  16  12   7     0.45292     7.48845     7.60987 
  16  12   8     0.44370   393.71575   394.53833 
  16  12   9     0.43390    32.62990    32.21799 
  16  12  10     0.42368   712.45551   698.47003 
  16  12  11     0.41319    31.35275    30.53080 
  16  12  12     0.40254   373.96896   364.48326 
  16  12  13     0.39185     8.75803     8.74721 
  16  12  14     0.38122    20.79695    20.99064 
  16  13   0     0.47870   545.53652   555.25563 
  16  13   1     0.47796   259.12592   264.79839 
  16  13   2     0.47574   762.07606   780.84552 
  16  13   3     0.47211   294.19452   302.61413 
  16  13   4     0.46716    77.48548    79.14975 
  16  13   5     0.46102   681.55202   683.55371 
  16  13   6     0.45384    20.58437    20.79782 
  16  13   7     0.44576    23.65259    23.59149 
  16  13   8     0.43697   133.98855   133.02284 
  16  13   9     0.42760   827.51373   825.17125 
  16  13  10     0.41781   214.60793   208.84685 
  16  13  11     0.40773    48.43440    47.58896 
  16  13  12     0.39749     0.20659     0.20239 
  16  13  13     0.38719    42.81924    43.03740 
  16  13  14     0.37692     7.75238     7.84335 
  16  14   0     0.46962    78.64983    81.83392 
  16  14   1     0.46892     0.00528     0.00547 
  16  14   2     0.46682    78.54004    80.31275 
  16  14   3     0.46339    41.77444    42.54316 
  16  14   4     0.45871    67.55394    67.75902 
  16  14   5     0.45289    26.53656    26.97452 
  16  14   6     0.44608   104.00393   103.59151 
  16  14   7     0.43840    16.12308    16.10178 
  16  14   8     0.43002    91.22303    89.86017 
  16  14   9     0.42109    16.81515    16.35145 
  16  14  10     0.41173   221.61181   217.31855 
  16  14  11     0.40208    19.70954    19.20020 
  16  14  12     0.39225   455.84263   455.42948 
  16  14  13     0.38234     0.24053     0.24258 
  16  14  14     0.37244   685.92561   737.84550 
  16  15   0     0.46042   306.00008   307.22107 
  16  15   1     0.45976   516.86275   518.28448 
  16  15   2     0.45778   413.52507   415.65164 
  16  15   3     0.45454    49.09629    49.61848 
  16  15   4     0.45012    29.86058    30.27805 
  16  15   5     0.44462    79.16916    79.20911 
  16  15   6     0.43817   113.80708   113.49805 
  16  15   7     0.43089  1296.42720  1278.60858 
  16  15   8     0.42293   197.44217   193.31758 
  16  15   9     0.41441     9.22257     9.03024 
  16  15  10     0.40548   147.49546   144.77046 
  16  15  11     0.39626   110.66128   109.31626 
  16  15  12     0.38684    46.94279    47.10418 
  16  15  13     0.37732   243.52476   246.56915 
  16  16   0     0.45116   326.84269   329.78393 
  16  16   1     0.45053     2.11006     2.13962 
  16  16   2     0.44867   903.77651   906.80418 
  16  16   3     0.44562     5.74641     5.73909 
  16  16   4     0.44146  1021.81383  1025.93096 
  16  16   5     0.43626     0.00132     0.00131 
  16  16   6     0.43016  1030.19100  1015.05792 
  16  16   7     0.42327    18.50121    18.10417 
  16  16   8     0.41571  1142.90062  1118.88236 
  16  16   9     0.40762    56.06189    55.09525 
  16  16  10     0.39912   763.69657   750.25199 
  16  16  11     0.39030    17.31767    17.27448 
  16  16  12     0.38129   467.29277   471.76810 
  16  16  13     0.37217     5.41496     5.85264 
  16  17   0     0.44189    89.55371    89.83949 
  16  17   1     0.44130   179.86640   180.51365 
  16  17   2     0.43955    68.93469    68.92868 
  16  17   3     0.43668   418.13214   415.07631 
  16  17   4     0.43276    20.60308    20.41041 
  16  17   5     0.42787   839.33487   835.64696 
  16  17   6     0.42210   142.80306   139.73690 
  16  17   7     0.41559     2.62293     2.56733 
  16  17   8     0.40843   265.40858   260.03549 
  16  17   9     0.40075   801.43023   788.56950 
  16  17  10     0.39265   223.30361   222.86109 
  16  17  11     0.38426    33.68623    33.76229 
  16  17  12     0.37565     1.93787     1.98222 
  16  18   0     0.43266    59.31606    58.71835 
  16  18   1     0.43211     5.82899     5.72631 
  16  18   2     0.43046   401.80746   396.19452 
  16  18   3     0.42777     2.17799     2.16988 
  16  18   4     0.42408   168.09828   164.97450 
  16  18   5     0.41947    24.22393    23.66357 
  16  18   6     0.41404    31.43434    30.74277 
  16  18   7     0.40788   109.24449   107.28767 
  16  18   8     0.40111   301.03787   296.01190 
  16  18   9     0.39382    53.60133    53.38814 
  16  18  10     0.38613   120.82230   120.34899 
  16  18  11     0.37814    29.64977    30.04608 
  16  19   0     0.42350     3.34402     3.27529 
  16  19   1     0.42298   399.15040   390.71899 
  16  19   2     0.42144     1.30504     1.27065 
  16  19   3     0.41891    26.16146    25.53008 
  16  19   4     0.41544    50.62594    49.54795 
  16  19   5     0.41111    30.12264    29.46060 
  16  19   6     0.40599   270.43031   264.34813 
  16  19   7     0.40018   852.56893   837.82144 
  16  19   8     0.39378   215.88301   215.01037 
  16  19   9     0.38688    31.71221    31.83010 
  16  19  10     0.37958   115.92026   116.65841 
  16  19  11     0.37198    39.03346    42.31207 
  16  20   0     0.41445    95.31126    93.32767 
  16  20   1     0.41396     1.39326     1.36206 
  16  20   2     0.41252   941.14662   918.94687 
  16  20   3     0.41015    32.68253    31.74416 
  16  20   4     0.40689   707.42310   693.08933 
  16  20   5     0.40281    74.67054    72.97741 
  16  20   6     0.39799   351.96767   343.73672 
  16  20   7     0.39252   116.20670   116.02534 
  16  20   8     0.38647  1141.86851  1141.61298 
  16  20   9     0.37994   120.99739   121.95867 
  16  20  10     0.37302   282.96347   301.03285 
  16  21   0     0.40553    20.07172    19.69028 
  16  21   1     0.40508   148.93643   146.83059 
  16  21   2     0.40373     1.74234     1.71875 
  16  21   3     0.40150   129.70643   127.07836 
  16  21   4     0.39844    46.65113    45.58255 
  16  21   5     0.39461   283.88858   283.13206 
  16  21   6     0.39008   112.60224   112.41467 
  16  21   7     0.38492    41.49214    41.31119 
  16  21   8     0.37921   208.13887   209.48931 
  16  21   9     0.37304   349.96427   372.21413 
  16  22   0     0.39678     4.41803     4.35451 
  16  22   1     0.39635     6.99036     6.90454 
  16  22   2     0.39508   597.02805   593.33968 
  16  22   3     0.39299    13.63215    13.59076 
  16  22   4     0.39013   299.92921   299.37700 
  16  22   5     0.38653    61.73093    61.76008 
  16  22   6     0.38227    57.51060    58.01046 
  16  22   7     0.37741   118.47019   119.98610 
  16  22   8     0.37202  1016.99769  1101.74792 
  16  23   0     0.38819    76.06125    76.08983 
  16  23   1     0.38779   152.42635   152.92043 
  16  23   2     0.38660   125.06353   125.22242 
  16  23   3     0.38465     0.49002     0.48892 
  16  23   4     0.38196     2.52434     2.54828 
  16  23   5     0.37858     1.98819     2.00986 
  16  23   6     0.37457    91.44308    94.62609 
  16  24   0     0.37980    62.76330    63.21658 
  16  24   1     0.37942     0.03780     0.03803 
  16  24   2     0.37831  1277.20464  1293.24395 
  16  24   3     0.37648     4.00518     4.05886 
  16  24   4     0.37395   665.83746   695.38622 
  17   0   1     0.51738    97.74460    99.27546 
  17   0   2     0.51457    13.03173    13.18393 
  17   0   3     0.50998   273.81906   275.03867 
  17   0   4     0.50376   714.44210   717.30087 
  17   0   5     0.49609     2.64318     2.69621 
  17   0   6     0.48717     2.05483     2.08403 
  17   0   7     0.47722    20.40623    20.95399 
  17   0   8     0.46647     1.53753     1.57348 
  17   0   9     0.45513   144.24583   146.20772 
  17   0  10     0.44337    40.06678    40.19706 
  17   0  11     0.43139    23.98948    23.59688 
  17   0  12     0.41931   349.90860   341.84322 
  17   0  13     0.40728   588.52966   577.95874 
  17   0  14     0.39537    14.89553    14.76451 
  17   0  15     0.38368   665.12031   670.09042 
  17   0  16     0.37226     3.30235     3.56399 
  17   1   1     0.51694    62.30128    63.44813 
  17   1   2     0.51414   150.43063   151.58683 
  17   1   3     0.50956    46.80042    47.12027 
  17   1   4     0.50336   798.57055   802.31259 
  17   1   5     0.49570   208.98336   213.90871 
  17   1   6     0.48680   537.99903   547.44391 
  17   1   7     0.47688    19.16689    19.67786 
  17   1   8     0.46615   254.49481   260.73425 
  17   1   9     0.45483     0.39301     0.39758 
  17   1  10     0.44310   130.77821   131.23702 
  17   1  11     0.43113     0.76552     0.75420 
  17   1  12     0.41908     1.76793     1.72644 
  17   1  13     0.40706   106.13621   104.10222 
  17   1  14     0.39518    11.08325    11.00482 
  17   1  15     0.38350     0.50809     0.51216 
  17   1  16     0.37210    14.11209    15.27144 
  17   2   1     0.51564   444.59296   452.38903 
  17   2   2     0.51286   502.91421   506.00798 
  17   2   3     0.50831  1287.90872  1304.13246 
  17   2   4     0.50215     3.18436     3.24040 
  17   2   5     0.49455   901.13467   930.43204 
  17   2   6     0.48572   428.49739   439.42282 
  17   2   7     0.47586  1221.91823  1252.78583 
  17   2   8     0.46520    13.06904    13.43250 
  17   2   9     0.45394  1334.97863  1348.91062 
  17   2  10     0.44228   439.46745   440.54567 
  17   2  11     0.43038   268.57011   264.76441 
  17   2  12     0.41839    82.33627    80.17027 
  17   2  13     0.40643   201.20651   196.66756 
  17   2  14     0.39459   124.32195   123.99584 
  17   2  15     0.38297    99.72431   100.51504 
  17   3   1     0.51349    27.93636    28.09991 
  17   3   2     0.51074   169.76656   170.37966 
  17   3   3     0.50625   201.14389   202.86665 
  17   3   4     0.50017   467.70805   474.02062 
  17   3   5     0.49266    28.24337    28.88744 
  17   3   6     0.48392   439.15723   451.10717 
  17   3   7     0.47417    13.96423    14.21556 
  17   3   8     0.46362   198.89814   202.59551 
  17   3   9     0.45247     3.80359     3.87079 
  17   3  10     0.44092    35.56725    35.59967 
  17   3  11     0.42913   110.50980   109.10385 
  17   3  12     0.41724     8.75898     8.53280 
  17   3  13     0.40537    27.01114    26.54612 
  17   3  14     0.39363     8.89296     8.85601 
  17   3  15     0.38209     3.58838     3.62122 
  17   4   1     0.51052   182.12631   182.87280 
  17   4   2     0.50782    37.92328    38.42006 
  17   4   3     0.50341   532.62490   534.97179 
  17   4   4     0.49743  1038.25081  1048.34735 
  17   4   5     0.49004     0.77770     0.79453 
  17   4   6     0.48143    11.79057    12.09605 
  17   4   7     0.47183   114.41230   117.91585 
  17   4   8     0.46143     4.12464     4.14491 
  17   4   9     0.45044   474.44558   481.27578 
  17   4  10     0.43904    79.68746    79.65584 
  17   4  11     0.42739   169.24838   168.80433 
  17   4  12     0.41564   504.04230   493.39266 
  17   4  13     0.40391  1437.78235  1420.00753 
  17   4  14     0.39229    43.09006    43.04887 
  17   4  15     0.38086  1503.15565  1515.70469 
  17   5   1     0.50679   106.67108   108.00803 
  17   5   2     0.50414    27.58892    27.71192 
  17   5   3     0.49983     9.92157    10.05232 
  17   5   4     0.49397   524.51498   541.83186 
  17   5   5     0.48673   242.03470   246.52426 
  17   5   6     0.47830   162.20151   165.23802 
  17   5   7     0.46887    18.80798    19.44458 
  17   5   8     0.45867    45.86309    46.00386 
  17   5   9     0.44787    98.01003    98.08718 
  17   5  10     0.43665    77.76468    77.19275 
  17   5  11     0.42519     2.30233     2.26480 
  17   5  12     0.41362    14.75206    14.39018 
  17   5  13     0.40205   323.94583   315.61831 
  17   5  14     0.39058     5.64503     5.62640 
  17   5  15     0.37930     0.47776     0.48073 
  17   6   1     0.50233   553.08153   561.97730 
  17   6   2     0.49975   316.08835   320.25670 
  17   6   3     0.49555  1208.82607  1238.84466 
  17   6   4     0.48984     2.94983     3.01455 
  17   6   5     0.48277   753.38135   778.61318 
  17   6   6     0.47454   281.74153   286.69677 
  17   6   7     0.46534   846.95598   870.68798 
  17   6   8     0.45535    12.17864    12.36052 
  17   6   9     0.44478   805.86651   806.69331 
  17   6  10     0.43379   255.25239   251.80605 
  17   6  11     0.42255   108.66683   106.54346 
  17   6  12     0.41118    78.36434    76.68808 
  17   6  13     0.39981    78.00716    76.70177 
  17   6  14     0.38853    55.03725    54.97570 
  17   6  15     0.37742    41.22337    41.75320 
  17   7   1     0.49721    15.08779    15.24090 
  17   7   2     0.49471   120.32627   124.11008 
  17   7   3     0.49063   189.09850   192.98145 
  17   7   4     0.48508   110.39592   113.11268 
  17   7   5     0.47822    79.29608    80.82597 
  17   7   6     0.47022   199.49945   207.45735 
  17   7   7     0.46126     2.35286     2.36094 
  17   7   8     0.45153    78.37609    79.06248 
  17   7   9     0.44121     0.26381     0.26464 
  17   7  10     0.43048     1.17883     1.16242 
  17   7  11     0.41949   437.86916   427.73154 
  17   7  12     0.40836    15.92017    15.60338 
  17   7  13     0.39721     1.89301     1.85908 
  17   7  14     0.38615     6.73688     6.71136 
  17   7  15     0.37523    11.16650    11.47438 
  17   8   1     0.49149   129.33241   131.59286 
  17   8   2     0.48908     2.08893     2.13287 
  17   8   3     0.48513   385.46271   394.98047 
  17   8   4     0.47977   781.33477   792.04317 
  17   8   5     0.47313    16.62781    16.98231 
  17   8   6     0.46537     3.43618     3.53227 
  17   8   7     0.45668   188.49324   191.47810 
  17   8   8     0.44723     0.88423     0.88695 
  17   8   9     0.43720   573.23339   568.87494 
  17   8  10     0.42675    49.70446    49.23304 
  17   8  11     0.41603   343.41563   336.40592 
  17   8  12     0.40517   263.87606   259.89831 
  17   8  13     0.39428  1476.84823  1472.85607 
  17   8  14     0.38345    20.71846    20.88632 
  17   8  15     0.37276  1486.10587  1588.97674 
  17   9   1     0.48524     2.37119     2.43016 
  17   9   2     0.48292     3.95091     4.08099 
  17   9   3     0.47912   319.09075   324.40965 
  17   9   4     0.47395   486.09447   495.33593 
  17   9   5     0.46755   179.67692   183.22353 
  17   9   6     0.46006    89.98444    90.30872 
  17   9   7     0.45165    83.71891    84.51163 
  17   9   8     0.44251    22.68622    22.74577 
  17   9   9     0.43279   212.14561   210.20256 
  17   9  10     0.42264   114.38174   112.12610 
  17   9  11     0.41222    37.56273    36.75081 
  17   9  12     0.40165    26.36576    25.78320 
  17   9  13     0.39103   464.55531   462.93887 
  17   9  14     0.38046     6.44846     6.50488 
  17  10   1     0.47853   689.97157   702.38350 
  17  10   2     0.47630   286.02312   293.52594 
  17  10   3     0.47266  1184.08501  1212.40591 
  17  10   4     0.46769    83.08769    84.70121 
  17  10   5     0.46153   905.00036   910.64389 
  17  10   6     0.45433   326.56016   330.00271 
  17  10   7     0.44623   953.96483   950.47781 
  17  10   8     0.43740    33.75727    33.49725 
  17  10   9     0.42801   837.17971   832.61321 
  17  10  10     0.41819   101.56516    98.84973 
  17  10  11     0.40809   218.49165   214.39763 
  17  10  12     0.39782     6.95181     6.79357 
  17  10  13     0.38750   125.09218   125.69111 
  17  10  14     0.37720    40.47423    40.96500 
  17  11   1     0.47143   178.02825   183.82220 
  17  11   2     0.46930   239.88041   249.35526 
  17  11   3     0.46581   164.10832   168.41054 
  17  11   4     0.46106   145.89352   146.32247 
  17  11   5     0.45515   213.71899   216.66834 
  17  11   6     0.44824   418.57929   418.69011 
  17  11   7     0.44046     3.38726     3.38187 
  17  11   8     0.43196   222.93252   218.79942 
  17  11   9     0.42290    22.86482    22.38948 
  17  11  10     0.41342     0.25109     0.24467 
  17  11  11     0.40366   498.91823   491.92237 
  17  11  12     0.39371    68.91948    68.63455 
  17  11  13     0.38370    17.93441    18.06716 
  17  11  14     0.37369     9.41191     9.87901 
  17  12   1     0.46400   179.36762   182.57187 
  17  12   2     0.46197    51.47617    52.07833 
  17  12   3     0.45865   246.56048   247.32160 
  17  12   4     0.45410   592.16202   598.40901 
  17  12   5     0.44846    12.29849    12.31795 
  17  12   6     0.44184   101.21783   101.55760 
  17  12   7     0.43438    60.13372    59.80967 
  17  12   8     0.42623    12.03906    11.84519 
  17  12   9     0.41752   206.24823   200.76686 
  17  12  10     0.40839     0.67723     0.66365 
  17  12  11     0.39897   210.97577   206.99968 
  17  12  12     0.38936   130.73850   130.71192 
  17  12  13     0.37966   914.23754   920.29159 
  17  13   1     0.45632    46.53137    47.30530 
  17  13   2     0.45439    34.78955    35.15584 
  17  13   3     0.45122   233.35111   235.39510 
  17  13   4     0.44689   907.68262   908.96845 
  17  13   5     0.44151   440.69619   442.49258 
  17  13   6     0.43519   285.90677   285.35966 
  17  13   7     0.42806    10.15958    10.10031 
  17  13   8     0.42025   118.36854   115.14876 
  17  13   9     0.41189   115.74685   113.45969 
  17  13  10     0.40312   241.79103   237.22594 
  17  13  11     0.39405   145.59135   145.09629 
  17  13  12     0.38478    19.92028    19.85298 
  17  13  13     0.37542   421.47278   432.23500 
  17  14   1     0.44843   548.65675   549.41000 
  17  14   2     0.44660   118.39650   118.26954 
  17  14   3     0.44359   904.41616   906.73789 
  17  14   4     0.43948   213.60420   213.59549 
  17  14   5     0.43435  1120.38551  1113.88410 
  17  14   6     0.42833   134.61704   133.54360 
  17  14   7     0.42152  1273.49108  1240.39017 
  17  14   8     0.41406     7.52149     7.35680 
  17  14   9     0.40606  1088.65257  1063.95761 
  17  14  10     0.39765    34.67922    33.92768 
  17  14  11     0.38894   536.57621   536.05429 
  17  14  12     0.38002    32.30789    32.57434 
  17  15   1     0.44040     5.95933     5.94925 
  17  15   2     0.43866   376.09155   375.83098 
  17  15   3     0.43581   760.96829   755.69007 
  17  15   4     0.43191   218.35740   214.29580 
  17  15   5     0.42704    34.01362    33.83726 
  17  15   6     0.42131   628.20312   611.34132 
  17  15   7     0.41483    80.66280    78.98404 
  17  15   8     0.40771   327.85167   322.14131 
  17  15   9     0.40007    79.36067    77.99311 
  17  15  10     0.39202     0.17968     0.17952 
  17  15  11     0.38366   456.51451   459.96462 
  17  15  12     0.37509    84.06913    86.51923 
  17  16   1     0.43227   354.54405   349.01821 
  17  16   2     0.43063    75.87074    74.83451 
  17  16   3     0.42793   233.54082   232.40128 
  17  16   4     0.42424    77.56285    76.11911 
  17  16   5     0.41962    64.19398    62.68590 
  17  16   6     0.41418    66.07792    64.66444 
  17  16   7     0.40802    59.05308    57.96256 
  17  16   8     0.40124     0.00419     0.00412 
  17  16   9     0.39395   122.84196   122.38988 
  17  16  10     0.38625    53.61655    53.47217 
  17  16  11     0.37825   291.31093   295.05555 
  17  17   1     0.42410   576.50439   565.78758 
  17  17   2     0.42255    17.21181    16.87548 
  17  17   3     0.42000     0.74138     0.72247 
  17  17   4     0.41650   679.58154   664.99807 
  17  17   5     0.41213   757.43033   741.50739 
  17  17   6     0.40698   156.64713   153.56025 
  17  17   7     0.40113     0.07374     0.07250 
  17  17   8     0.39468    47.95837    47.81910 
  17  17   9     0.38773   108.81860   109.21363 
  17  17  10     0.38039   145.62660   146.91645 
  17  17  11     0.37274   112.51266   120.34278 
  17  18   1     0.41592   510.50163   499.98249 
  17  18   2     0.41445     0.41923     0.41051 
  17  18   3     0.41204   564.84095   553.28257 
  17  18   4     0.40874   191.62459   187.26423 
  17  18   5     0.40461   900.61526   890.89152 
  17  18   6     0.39973     0.03425     0.03369 
  17  18   7     0.39418   838.30554   835.81112 
  17  18   8     0.38806     5.55348     5.56076 
  17  18   9     0.38145   571.46006   577.15182 
  17  18  10     0.37445     1.17180     1.21436 
  17  19   1     0.40776    83.64418    82.17851 
  17  19   2     0.40638   180.14177   176.05745 
  17  19   3     0.40411   812.11082   802.97863 
  17  19   4     0.40099    24.01406    23.62578 
  17  19   5     0.39709    18.23704    17.92905 
  17  19   6     0.39247   219.38495   219.07117 
  17  19   7     0.38722    37.22391    37.41470 
  17  19   8     0.38141   100.64338   101.63583 
  17  19   9     0.37513    21.39991    22.01448 
  17  20   1     0.39967   341.50816   335.89735 
  17  20   2     0.39836   150.19044   146.71173 
  17  20   3     0.39623   180.46554   178.27940 
  17  20   4     0.39329     0.63790     0.63549 
  17  20   5     0.38960   263.27326   263.21572 
  17  20   6     0.38524   114.21612   113.51693 
  17  20   7     0.38026   252.81751   255.06193 
  17  20   8     0.37476     0.35593     0.36758 
  17  21   1     0.39165   140.29121   140.01804 
  17  21   2     0.39043     0.80254     0.80022 
  17  21   3     0.38841    49.65720    49.61869 
  17  21   4     0.38564   223.64111   222.12282 
  17  21   5     0.38217   235.04480   237.14428 
  17  21   6     0.37805    11.27530    11.42940 
  17  21   7     0.37334    20.99808    22.20039 
  17  22   1     0.38375   671.31488   676.07471 
  17  22   2     0.38259     0.75518     0.76125 
  17  22   3     0.38070   439.64268   443.31418 
  17  22   4     0.37809   549.00860   556.44176 
  17  22   5     0.37481   802.87327   828.67811 
  17  23   1     0.37596    56.84284    57.92272 
  17  23   2     0.37488   101.98072   105.18434 
  17  23   3     0.37310    61.52867    65.36680 
  18   0   0     0.48953     2.48245     2.53698 
  18   0   1     0.48873   139.81325   142.56499 
  18   0   2     0.48636   392.58883   401.68647 
  18   0   3     0.48248     0.80625     0.83301 
  18   0   4     0.47720   453.83752   466.01870 
  18   0   5     0.47067    10.00771    10.39061 
  18   0   6     0.46303   381.06580   386.97446 
  18   0   7     0.45447   182.77846   184.70559 
  18   0   8     0.44515  1119.70081  1121.70062 
  18   0   9     0.43526    68.86410    68.69644 
  18   0  10     0.42495   212.40712   208.80452 
  18   0  11     0.41436    20.25093    19.82714 
  18   0  12     0.40362   104.88723   103.39334 
  18   0  13     0.39285     2.91990     2.91229 
  18   0  14     0.38214   132.87342   134.07167 
  18   1   0     0.48916    50.97238    52.05616 
  18   1   1     0.48836    43.01408    43.75302 
  18   1   2     0.48600    74.38571    76.28657 
  18   1   3     0.48213   371.09557   382.43573 
  18   1   4     0.47686   196.69067   201.93135 
  18   1   5     0.47034   480.52737   499.62394 
  18   1   6     0.46272   207.00333   209.59115 
  18   1   7     0.45417   202.39059   204.52673 
  18   1   8     0.44487    62.86486    62.95011 
  18   1   9     0.43500    47.44654    47.40316 
  18   1  10     0.42470    55.70253    54.70504 
  18   1  11     0.41413     1.41530     1.38473 
  18   1  12     0.40342     3.52228     3.46652 
  18   1  13     0.39266     2.04718     2.04308 
  18   1  14     0.38196    51.63715    52.12658 
  18   2   0     0.48806    43.20157    43.86102 
  18   2   1     0.48727   119.83833   121.50665 
  18   2   2     0.48491  1071.46292  1097.55708 
  18   2   3     0.48107    48.97663    50.11134 
  18   2   4     0.47584   167.34809   171.56391 
  18   2   5     0.46936   134.70211   140.07385 
  18   2   6     0.46178    33.78336    34.11149 
  18   2   7     0.45329   120.06139   121.54495 
  18   2   8     0.44404   537.35597   537.65058 
  18   2   9     0.43422    86.52796    85.83179 
  18   2  10     0.42398    27.21540    26.70653 
  18   2  11     0.41346    43.63926    42.53164 
  18   2  12     0.40280   599.11285   585.40539 
  18   2  13     0.39209   589.27475   588.79797 
  18   2  14     0.38143  2110.61249  2131.55272 
  18   3   0     0.48623     0.16221     0.16616 
  18   3   1     0.48545     0.05569     0.05709 
  18   3   2     0.48312    64.95826    67.01170 
  18   3   3     0.47932   335.92042   341.10650 
  18   3   4     0.47415   111.18429   113.19414 
  18   3   5     0.46773   428.49145   436.82327 
  18   3   6     0.46024    31.68469    31.80770 
  18   3   7     0.45182    28.15219    28.45719 
  18   3   8     0.44267   119.02033   119.36506 
  18   3   9     0.43294   100.94839   100.02777 
  18   3  10     0.42278    12.38719    12.13710 
  18   3  11     0.41235     1.48219     1.44884 
  18   3  12     0.40177    23.26717    22.72126 
  18   3  13     0.39114     2.21927     2.21192 
  18   3  14     0.38056     3.42585     3.45525 
  18   4   0     0.48371    35.93822    36.95770 
  18   4   1     0.48294   232.13123   239.73921 
  18   4   2     0.48065   908.15131   925.54838 
  18   4   3     0.47691     2.78136     2.85556 
  18   4   4     0.47181   917.69085   945.88809 
  18   4   5     0.46549    28.69509    29.49111 
  18   4   6     0.45810   669.39185   671.91750 
  18   4   7     0.44980   238.24233   241.00508 
  18   4   8     0.44076  1747.21712  1746.90929 
  18   4   9     0.43115   180.32307   177.63533 
  18   4  10     0.42112   286.87005   278.99202 
  18   4  11     0.41081    73.78468    71.97631 
  18   4  12     0.40034   130.74441   128.50574 
  18   4  13     0.38983    20.04014    20.02527 
  18   4  14     0.37935   189.58620   190.74591 
  18   5   0     0.48053     7.97201     8.11583 
  18   5   1     0.47977    93.54704    94.82886 
  18   5   2     0.47753    44.80616    45.98570 
  18   5   3     0.47386   110.99415   113.14866 
  18   5   4     0.46885     5.90608     6.10406 
  18   5   5     0.46265   129.17517   130.75764 
  18   5   6     0.45539   111.57448   113.25416 
  18   5   7     0.44724   178.66584   179.21580 
  18   5   8     0.43835    11.09664    11.07934 
  18   5   9     0.42890     4.01007     3.96396 
  18   5  10     0.41902    38.82633    37.90769 
  18   5  11     0.40886     3.27295     3.19456 
  18   5  12     0.39853     0.28238     0.27605 
  18   5  13     0.38815    24.01526    24.03037 
  18   5  14     0.37781   148.93277   151.01863 
  18   6   0     0.47672    22.90616    23.51426 
  18   6   1     0.47599    92.13556    94.50242 
  18   6   2     0.47379   696.71383   710.40178 
  18   6   3     0.47021    18.05204    18.77234 
  18   6   4     0.46532   144.79578   148.85732 
  18   6   5     0.45925    49.42626    49.53106 
  18   6   6     0.45215     0.77248     0.78370 
  18   6   7     0.44416   157.09496   157.12799 
  18   6   8     0.43546   615.07749   612.50231 
  18   6   9     0.42618    15.21881    14.96990 
  18   6  10     0.41649   136.14822   133.23560 
  18   6  11     0.40650    86.99678    85.05459 
  18   6  12     0.39635   775.60609   766.08052 
  18   6  13     0.38614   551.90472   549.77946 
  18   6  14     0.37595  2014.96266  2053.61015 
  18   7   0     0.47234   188.84601   193.86527 
  18   7   1     0.47162    42.24548    43.58346 
  18   7   2     0.46949     1.70271     1.77139 
  18   7   3     0.46600   230.71845   236.54531 
  18   7   4     0.46124     0.07907     0.07933 
  18   7   5     0.45533   289.73824   294.02727 
  18   7   6     0.44840    42.80291    42.85271 
  18   7   7     0.44061    12.63458    12.62172 
  18   7   8     0.43211   126.15055   123.93074 
  18   7   9     0.42304   141.95320   138.91852 
  18   7  10     0.41355     0.92323     0.90023 
  18   7  11     0.40378     8.15522     8.04758 
  18   7  12     0.39382    51.93678    51.73037 
  18   7  13     0.38380    10.88434    10.95780 
  18   7  14     0.37379     8.78546     9.20399 
  18   8   0     0.46743   114.21997   116.52954 
  18   8   1     0.46673   110.65593   113.17663 
  18   8   2     0.46467   916.80055   937.77983 
  18   8   3     0.46128    13.32492    13.37300 
  18   8   4     0.45666   971.18955   986.67741 
  18   8   5     0.45092    51.61772    52.17368 
  18   8   6     0.44419   791.93991   792.03800 
  18   8   7     0.43662    69.16978    68.65605 
  18   8   8     0.42834  1420.39948  1408.99118 
  18   8   9     0.41950   171.73802   167.75843 
  18   8  10     0.41025   340.85475   331.17855 
  18   8  11     0.40070    92.42014    90.93101 
  18   8  12     0.39096   147.33768   146.81606 
  18   8  13     0.38115    42.87234    43.26217 
  18   9   0     0.46204     0.56342     0.57021 
  18   9   1     0.46137   208.27808   209.17225 
  18   9   2     0.45938   255.45628   255.96358 
  18   9   3     0.45610    94.30446    95.83947 
  18   9   4     0.45164     8.02632     8.10146 
  18   9   5     0.44608   114.51688   114.06273 
  18   9   6     0.43957   155.83209   155.81736 
  18   9   7     0.43222   387.46510   381.15886 
  18   9   8     0.42418    52.23892    51.26698 
  18   9   9     0.41560    17.40306    17.03440 
  18   9  10     0.40659    68.99214    67.47777 
  18   9  11     0.39729    20.10530    19.73194 
  18   9  12     0.38780     5.12696     5.14344 
  18   9  13     0.37822    61.39906    62.19850 
  18  10   0     0.45624    84.29970    85.69544 
  18  10   1     0.45559    44.10019    44.78700 
  18  10   2     0.45367   526.13001   531.59308 
  18  10   3     0.45052     1.49292     1.51396 
  18  10   4     0.44621   114.52718   114.09938 
  18  10   5     0.44085     8.69060     8.69413 
  18  10   6     0.43456     0.01218     0.01215 
  18  10   7     0.42746    81.65410    81.44909 
  18  10   8     0.41968   230.12677   224.67883 
  18  10   9     0.41136     1.67526     1.64144 
  18  10  10     0.40262   102.15735    99.62068 
  18  10  11     0.39358    66.08101    65.80653 
  18  10  12     0.38435   572.63219   573.27321 
  18  10  13     0.37501   338.50163   348.66069 
  18  11   0     0.45007   164.41150   166.67058 
  18  11   1     0.44945    46.43803    46.82310 
  18  11   2     0.44761    36.76853    36.85329 
  18  11   3     0.44458   452.56554   452.73008 
  18  11   4     0.44044    33.91010    33.85516 
  18  11   5     0.43528   602.02886   600.43496 
  18  11   6     0.42922    16.50963    16.29140 
  18  11   7     0.42237     0.01471     0.01442 
  18  11   8     0.41487   366.84906   359.20305 
  18  11   9     0.40682   322.03997   315.38038 
  18  11  10     0.39836     0.06980     0.06819 
  18  11  11     0.38960     4.22258     4.22166 
  18  11  12     0.38064    45.54967    45.93460 
  18  12   0     0.44360   123.11985   123.43010 
  18  12   1     0.44301    35.87266    35.99633 
  18  12   2     0.44124   557.18025   558.99782 
  18  12   3     0.43833     0.21899     0.21863 
  18  12   4     0.43437   935.34990   930.09031 
  18  12   5     0.42942     2.44990     2.41522 
  18  12   6     0.42359  1211.36249  1187.05221 
  18  12   7     0.41701    41.42398    40.40031 
  18  12   8     0.40978  1458.54949  1416.16707 
  18  12   9     0.40202    36.03422    35.11270 
  18  12  10     0.39385   738.19172   735.28757 
  18  12  11     0.38538    49.24714    48.92133 
  18  12  12     0.37670   314.32192   318.14780 
  18  13   0     0.43687   176.87323   175.60838 
  18  13   1     0.43630   340.67258   337.90529 
  18  13   2     0.43461     8.50626     8.48643 
  18  13   3     0.43184   176.17252   172.89954 
  18  13   4     0.42804    71.55672    71.14774 
  18  13   5     0.42330   221.26970   216.54381 
  18  13   6     0.41772   536.55971   522.18646 
  18  13   7     0.41140   692.57765   678.76458 
  18  13   8     0.40445    13.68505    13.54188 
  18  13   9     0.39699    13.86531    13.64277 
  18  13  10     0.38912   134.87227   134.79186 
  18  13  11     0.38094    31.74895    32.01883 
  18  13  12     0.37255    23.13724    24.83508 
  18  14   0     0.42993   271.25764   267.17760 
  18  14   1     0.42939     0.00329     0.00324 
  18  14   2     0.42778   473.66002   471.85671 
  18  14   3     0.42513    23.57256    23.18639 
  18  14   4     0.42151   148.49387   144.62497 
  18  14   5     0.41698    42.57937    41.53336 
  18  14   6     0.41165    21.64875    21.22910 
  18  14   7     0.40559     4.62657     4.53585 
  18  14   8     0.39893    54.29426    53.25541 
  18  14   9     0.39176     2.09782     2.09462 
  18  14  10     0.38419   142.12714   142.55780 
  18  14  11     0.37632    37.19963    37.75026 
  18  15   0     0.42284     4.96222     4.86062 
  18  15   1     0.42232    51.97169    50.92709 
  18  15   2     0.42079   458.40777   445.40952 
  18  15   3     0.41827   394.20920   383.73447 
  18  15   4     0.41482   262.45881   256.99929 
  18  15   5     0.41050   503.19148   489.66345 
  18  15   6     0.40541     1.18272     1.16187 
  18  15   7     0.39962     5.11852     5.03480 
  18  15   8     0.39325   530.15199   528.19311 
  18  15   9     0.38638   254.95286   254.61586 
  18  15  10     0.37911     0.05236     0.05273 
  18  16   0     0.41563   195.19046   191.06429 
  18  16   1     0.41514     6.20704     6.07574 
  18  16   2     0.41369   317.08866   309.44827 
  18  16   3     0.41129    41.83176    40.96944 
  18  16   4     0.40801   713.00992   699.88107 
  18  16   5     0.40390    61.27443    60.51383 
  18  16   6     0.39904  1143.52710  1122.74338 
  18  16   7     0.39352    30.39440    30.26880 
  18  16   8     0.38743   759.90653   763.69863 
  18  16   9     0.38085     0.62038     0.62556 
  18  16  10     0.37389   658.66533   688.75992 
  18  17   0     0.40835   275.42403   269.95402 
  18  17   1     0.40789   236.85528   232.60573 
  18  17   2     0.40650     0.94333     0.92227 
  18  17   3     0.40423    38.89612    38.47874 
  18  17   4     0.40111    91.69679    90.16246 
  18  17   5     0.39721    37.74882    37.07467 
  18  17   6     0.39258   500.92200   500.03846 
  18  17   7     0.38732   338.28559   340.03193 
  18  17   8     0.38151    25.37211    25.62634 
  18  17   9     0.37523    66.31782    68.15089 
  18  18   0     0.40103   360.13156   354.25387 
  18  18   1     0.40059    30.45380    29.95412 
  18  18   2     0.39928   281.22581   276.53761 
  18  18   3     0.39713    22.22257    21.84068 
  18  18   4     0.39417   227.24246   226.55804 
  18  18   5     0.39046    23.15108    23.08192 
  18  18   6     0.38607   253.19620   252.04100 
  18  18   7     0.38106    62.50174    63.05183 
  18  18   8     0.37552    98.47043   100.86852 
  18  19   0     0.39371    84.97053    84.61829 
  18  19   1     0.39329    66.20653    65.95611 
  18  19   2     0.39205    98.25644    98.17347 
  18  19   3     0.39001   112.91106   112.75338 
  18  19   4     0.38721    41.78546    41.99911 
  18  19   5     0.38369   130.72770   131.69898 
  18  19   6     0.37952    22.99454    23.13710 
  18  19   7     0.37476    62.18352    64.21722 
  18  20   0     0.38640   370.54549   370.17513 
  18  20   1     0.38601    15.66135    15.58299 
  18  20   2     0.38484   248.92185   247.96892 
  18  20   3     0.38291    18.44402    18.58954 
  18  20   4     0.38025   584.95180   590.14543 
  18  20   5     0.37692    37.19427    37.63074 
  18  20   6     0.37296  1011.18075  1076.95769 
  18  21   0     0.37915     0.86627     0.87214 
  18  21   1     0.37878   125.73486   126.91819 
  18  21   2     0.37767   244.06987   247.43370 
  18  21   3     0.37584    12.23029    12.48145 
  18  21   4     0.37333    18.06917    19.10756 
  18  22   0     0.37196   438.48308   475.38642 
  19   0   1     0.46309   461.30179   468.72780 
  19   0   2     0.46107    18.06724    18.12053 
  19   0   3     0.45776     0.81312     0.81740 
  19   0   4     0.45324     5.23591     5.30276 
  19   0   5     0.44763   335.18577   335.90836 
  19   0   6     0.44105    64.77782    64.90107 
  19   0   7     0.43363    36.58670    36.07543 
  19   0   8     0.42551    25.45128    25.03199 
  19   0   9     0.41685    19.88362    19.41202 
  19   0  10     0.40776     6.10854     6.00149 
  19   0  11     0.39838   881.45141   861.08106 
  19   0  12     0.38881   133.43117   133.27600 
  19   0  13     0.37916   227.38871   228.91598 
  19   1   1     0.46277   735.09791   744.58191 
  19   1   2     0.46076   140.25440   140.76035 
  19   1   3     0.45746   490.63130   494.56741 
  19   1   4     0.45295   289.86674   294.48485 
  19   1   5     0.44735    64.23678    64.43355 
  19   1   6     0.44078   150.48005   150.46519 
  19   1   7     0.43337    19.34019    19.09583 
  19   1   8     0.42527    19.69340    19.37469 
  19   1   9     0.41662    87.68632    85.73977 
  19   1  10     0.40755     9.86084     9.69057 
  19   1  11     0.39818   144.10305   140.71474 
  19   1  12     0.38863    14.94165    14.92350 
  19   1  13     0.37899    53.25060    53.66538 
  19   2   1     0.46184   770.40960   778.38375 
  19   2   2     0.45983     9.59311     9.62189 
  19   2   3     0.45655    21.23980    21.58747 
  19   2   4     0.45207   146.26490   148.25581 
  19   2   5     0.44650  2265.56978  2261.31667 
  19   2   6     0.43997     2.94552     2.94182 
  19   2   7     0.43260   652.05997   645.07235 
  19   2   8     0.42455    90.17936    88.51829 
  19   2   9     0.41594   141.61980   138.70704 
  19   2  10     0.40691   166.64301   163.28918 
  19   2  11     0.39759  1169.03768  1144.33190 
  19   2  12     0.38807     4.38264     4.38784 
  19   2  13     0.37847    27.59342    27.91406 
  19   3   1     0.46029   510.98983   513.00854 
  19   3   2     0.45831    25.48362    25.57070 
  19   3   3     0.45506   202.67509   205.33278 
  19   3   4     0.45062   537.22112   544.50056 
  19   3   5     0.44511    60.85514    60.96831 
  19   3   6     0.43863    47.53391    47.49892 
  19   3   7     0.43133    56.43002    55.52774 
  19   3   8     0.42334     6.10782     5.97812 
  19   3   9     0.41481   117.13562   114.70016 
  19   3  10     0.40585    15.16209    14.83173 
  19   3  11     0.39660    77.25737    76.23645 
  19   3  12     0.38715    93.24063    93.71146 
  19   3  13     0.37762    99.78512   101.14290 
  19   4   1     0.45815   714.16620   716.79065 
  19   4   2     0.45620    59.94824    60.93542 
  19   4   3     0.45299     1.06972     1.08635 
  19   4   4     0.44861     1.58390     1.58844 
  19   4   5     0.44317   609.63385   611.77531 
  19   4   6     0.43678   217.17902   215.62303 
  19   4   7     0.42957    99.85052    98.37687 
  19   4   8     0.42168   103.54356   100.94870 
  19   4   9     0.41324    71.41408    69.54686 
  19   4  10     0.40438    30.84922    30.52811 
  19   4  11     0.39523  1677.51880  1664.85786 
  19   4  12     0.38588   240.91957   239.49534 
  19   4  13     0.37643   473.64789   480.14953 
  19   5   1     0.45545   166.81573   169.35554 
  19   5   2     0.45352   242.06465   244.65157 
  19   5   3     0.45037   197.54565   200.39932 
  19   5   4     0.44607    45.11712    44.93822 
  19   5   5     0.44072     4.85709     4.85487 
  19   5   6     0.43443   214.84393   213.84281 
  19   5   7     0.42733    39.85509    39.74672 
  19   5   8     0.41956    33.82790    33.03947 
  19   5   9     0.41125    82.69859    80.97191 
  19   5  10     0.40252    70.58101    68.78051 
  19   5  11     0.39348   193.34644   192.55605 
  19   5  12     0.38426    18.41921    18.46053 
  19   5  13     0.37493    10.27866    10.59640 
  19   6   1     0.45220   883.21244   896.61991 
  19   6   2     0.45032     1.31154     1.33054 
  19   6   3     0.44724   102.12215   102.43641 
  19   6   4     0.44302   239.67561   240.50457 
  19   6   5     0.43778  2019.18192  2006.97098 
  19   6   6     0.43161    62.53644    61.42472 
  19   6   7     0.42465   662.23716   650.21941 
  19   6   8     0.41702   167.63070   163.47309 
  19   6   9     0.40886   183.93131   179.52859 
  19   6  10     0.40027   180.44070   177.33387 
  19   6  11     0.39139   989.10937   986.32851 
  19   6  12     0.38230     9.37694     9.45765 
  19   6  13     0.37311     1.83197     1.94564 
  19   7   1     0.44845   171.04537   171.30794 
  19   7   2     0.44662     0.01956     0.01954 
  19   7   3     0.44361     9.85577     9.88018 
  19   7   4     0.43950   843.95233   843.90684 
  19   7   5     0.43437    27.56609    27.41509 
  19   7   6     0.42835    15.43706    15.31189 
  19   7   7     0.42154   106.12532   103.37562 
  19   7   8     0.41408     6.10953     5.97621 
  19   7   9     0.40608   129.58169   126.63756 
  19   7  10     0.39767   127.99604   125.20848 
  19   7  11     0.38895    26.40754    26.38259 
  19   7  12     0.38003   176.26132   177.72488 
  19   8   1     0.44424   556.01176   556.05534 
  19   8   2     0.44246    65.81790    65.98573 
  19   8   3     0.43953    13.91997    13.91892 
  19   8   4     0.43553    37.16045    36.97958 
  19   8   5     0.43055   381.40388   376.15069 
  19   8   6     0.42468   238.36394   234.05965 
  19   8   7     0.41804    74.94108    72.92716 
  19   8   8     0.41076   128.44265   125.23835 
  19   8   9     0.40295    72.61841    71.09175 
  19   8  10     0.39472    46.69393    46.54683 
  19   8  11     0.38619  1158.86961  1155.00958 
  19   8  12     0.37746   144.42589   146.30548 
  19   9   1     0.43961   153.31290   153.29296 
  19   9   2     0.43789   476.49544   474.03089 
  19   9   3     0.43505   278.25435   277.96250 
  19   9   4     0.43117    12.89534    12.70209 
  19   9   5     0.42633     7.82074     7.70073 
  19   9   6     0.42063   452.08200   439.20410 
  19   9   7     0.41418     9.46101     9.25835 
  19   9   8     0.40709    92.74569    90.98439 
  19   9   9     0.39948    47.20307    46.43494 
  19   9  10     0.39146   141.76868   141.40009 
  19   9  11     0.38314   214.88185   216.62430 
  19   9  12     0.37461    98.34927   101.73413 
  19  10   1     0.43461   640.82042   639.30388 
  19  10   2     0.43294     4.65118     4.60876 
  19  10   3     0.43019   243.36549   239.80629 
  19  10   4     0.42644   116.39692   114.74439 
  19  10   5     0.42176  1670.23360  1629.37098 
  19  10   6     0.41623    54.03352    52.92723 
  19  10   7     0.40998   900.90339   874.75666 
  19  10   8     0.40310   100.56192    98.64588 
  19  10   9     0.39571   432.57170   427.75417 
  19  10  10     0.38792    90.80713    91.02226 
  19  10  11     0.37981   834.80486   840.89927 
  19  11   1     0.42927   633.18396   624.66736 
  19  11   2     0.42766     0.64165     0.63971 
  19  11   3     0.42501   131.63838   129.43582 
  19  11   4     0.42139  1302.49941  1267.90098 
  19  11   5     0.41687   195.91668   191.24279 
  19  11   6     0.41154    24.06895    23.59978 
  19  11   7     0.40549    38.26738    37.55836 
  19  11   8     0.39883    10.25316    10.04747 
  19  11   9     0.39167    97.91011    97.72563 
  19  11  10     0.38410   221.77302   222.67722 
  19  11  11     0.37623    10.22817    10.38902 
  19  12   1     0.42364   556.07089   545.03268 
  19  12   2     0.42209     7.25246     7.09593 
  19  12   3     0.41955   124.98848   122.08153 
  19  12   4     0.41606    11.71932    11.48022 
  19  12   5     0.41171   203.51098   199.57046 
  19  12   6     0.40657    49.94885    48.84754 
  19  12   7     0.40073    70.76394    69.62723 
  19  12   8     0.39431    42.47973    42.36774 
  19  12   9     0.38738   112.76909   113.34088 
  19  12  10     0.38006    35.72363    36.02389 
  19  12  11     0.37243   715.23893   769.56950 
  19  13   1     0.41776   686.94132   668.52016 
  19  13   2     0.41628   571.66243   559.90100 
  19  13   3     0.41384   820.28089   801.32496 
  19  13   4     0.41049     0.36282     0.35304 
  19  13   5     0.40631    14.79645    14.45872 
  19  13   6     0.40137   471.08173   462.22325 
  19  13   7     0.39575     1.65508     1.63629 
  19  13   8     0.38956    70.03502    70.02222 
  19  13   9     0.38287    34.85899    35.13325 
  19  13  10     0.37580   276.69713   282.53809 
  19  14   1     0.41169   421.49455   413.33029 
  19  14   2     0.41027     1.11597     1.08439 
  19  14   3     0.40793   427.92064   420.17422 
  19  14   4     0.40472     4.06409     4.01820 
  19  14   5     0.40071   967.81275   952.24060 
  19  14   6     0.39597    18.14190    17.92439 
  19  14   7     0.39057   776.62376   774.07368 
  19  14   8     0.38461    34.19844    34.13331 
  19  14   9     0.37818   464.71866   470.84548 
  19  15   1     0.40545   910.15072   893.72292 
  19  15   2     0.40409    26.57745    26.27593 
  19  15   3     0.40186   217.42661   212.13880 
  19  15   4     0.39879   944.00133   924.70361 
  19  15   5     0.39495   236.43460   235.26695 
  19  15   6     0.39041     2.60127     2.59388 
  19  15   7     0.38523    37.18106    36.95439 
  19  15   8     0.37951     3.22278     3.24269 
  19  15   9     0.37332   115.21010   121.85249 
  19  16   1     0.39908   383.54245   376.69428 
  19  16   2     0.39778     0.02521     0.02464 
  19  16   3     0.39565   363.61027   359.68776 
  19  16   4     0.39273    29.83085    29.76486 
  19  16   5     0.38906   164.31170   164.19252 
  19  16   6     0.38471    14.91504    14.87286 
  19  16   7     0.37976   258.67173   260.49528 
  19  16   8     0.37427    40.29917    41.86318 
  19  17   1     0.39262   285.62248   285.08800 
  19  17   2     0.39139   355.95770   354.95667 
  19  17   3     0.38936   369.93132   369.85616 
  19  17   4     0.38657    70.31253    70.37345 
  19  17   5     0.38307     3.84552     3.87642 
  19  17   6     0.37892   209.91951   211.66358 
  19  17   7     0.37418     6.69702     6.96681 
  19  18   1     0.38610   358.81387   357.29195 
  19  18   2     0.38493    35.57797    35.42078 
  19  18   3     0.38300   725.65466   731.42593 
  19  18   4     0.38034    11.48136    11.58314 
  19  18   5     0.37701   419.42248   424.36941 
  19  18   6     0.37305   118.27527   125.77570 
  19  19   1     0.37955   119.97316   120.72702 
  19  19   2     0.37844    37.07666    37.51602 
  19  19   3     0.37660     0.24907     0.25220 
  19  19   4     0.37407   615.80219   641.70962 
  19  20   1     0.37299   247.59399   263.55056 
  20   0   0     0.44058    66.70454    66.62720 
  20   0   1     0.44000   101.45675   101.32184 
  20   0   2     0.43826   138.39325   138.10586 
  20   0   3     0.43542   122.86132   122.38993 
  20   0   4     0.43153   301.75780   296.55168 
  20   0   5     0.42667   136.24798   134.77818 
  20   0   6     0.42096   333.24259   323.92825 
  20   0   7     0.41449   243.07597   238.03069 
  20   0   8     0.40739   265.13628   260.48760 
  20   0   9     0.39977     5.26754     5.17993 
  20   0  10     0.39173   238.25263   237.86012 
  20   0  11     0.38339   250.82334   252.86562 
  20   0  12     0.37484    41.31435    42.62917 
  20   1   0     0.44031   101.49967   101.31301 
  20   1   1     0.43973     0.19133     0.19124 
  20   1   2     0.43800   272.67937   271.54634 
  20   1   3     0.43516    23.13399    23.09456 
  20   1   4     0.43127    78.61666    77.38843 
  20   1   5     0.42643     4.53036     4.46556 
  20   1   6     0.42073     3.91019     3.79884 
  20   1   7     0.41427    13.32846    13.04654 
  20   1   8     0.40718     0.98053     0.96242 
  20   1   9     0.39957     8.23248     8.09859 
  20   1  10     0.39154    16.55459    16.51577 
  20   1  11     0.38321    18.25580    18.40469 
  20   1  12     0.37468    13.89942    14.36656 
  20   2   0     0.43950   265.89784   265.88280 
  20   2   1     0.43892   468.82039   468.59597 
  20   2   2     0.43720   590.66958   586.17830 
  20   2   3     0.43438     5.63578     5.60526 
  20   2   4     0.43052   351.60308   346.73534 
  20   2   5     0.42570    13.42690    13.20035 
  20   2   6     0.42002   134.29823   130.84958 
  20   2   7     0.41360   223.66349   218.15315 
  20   2   8     0.40654   315.66850   308.67117 
  20   2   9     0.39896   783.36411   768.59129 
  20   2  10     0.39098   493.48566   491.74354 
  20   2  11     0.38268   301.54540   303.92891 
  20   2  12     0.37418   566.83863   589.68601 
  20   3   0     0.43817   183.32660   182.83086 
  20   3   1     0.43760     0.62882     0.62431 
  20   3   2     0.43589    64.37597    63.90180 
  20   3   3     0.43309    24.38604    24.14184 
  20   3   4     0.42926    41.08153    40.52989 
  20   3   5     0.42449    12.63628    12.40225 
  20   3   6     0.41886    18.42930    17.98026 
  20   3   7     0.41249     6.03847     5.89730 
  20   3   8     0.40549    66.59123    65.36015 
  20   3   9     0.39797     5.55451     5.42490 
  20   3  10     0.39004     0.95730     0.95587 
  20   3  11     0.38180     4.21928     4.26083 
  20   3  12     0.37336     0.70662     0.74690 
  20   4   0     0.43632   140.32589   139.19134 
  20   4   1     0.43576   186.48411   185.24775 
  20   4   2     0.43407   305.12562   301.94014 
  20   4   3     0.43131   153.82741   151.38968 
  20   4   4     0.42753   632.13536   630.49043 
  20   4   5     0.42281   161.17254   157.90012 
  20   4   6     0.41724   717.09000   698.55169 
  20   4   7     0.41095   489.63646   478.16644 
  20   4   8     0.40402   620.83584   613.57089 
  20   4   9     0.39658     2.43517     2.40324 
  20   4  10     0.38873   561.71654   561.02274 
  20   4  11     0.38058   441.17179   444.94525 
  20   4  12     0.37221   140.42574   151.68164 
  20   5   0     0.43398     0.01374     0.01358 
  20   5   1     0.43342     1.29974     1.28276 
  20   5   2     0.43177   261.46899   256.62735 
  20   5   3     0.42905    48.22198    47.62879 
  20   5   4     0.42532    43.95132    43.23846 
  20   5   5     0.42068    21.08141    20.48054 
  20   5   6     0.41520    63.91144    62.55593 
  20   5   7     0.40899     0.07639     0.07446 
  20   5   8     0.40216    69.86717    68.04092 
  20   5   9     0.39482     1.14725     1.14283 
  20   5  10     0.38707    32.08872    32.24196 
  20   5  11     0.37902     7.33056     7.38565 
  20   6   0     0.43117   254.09480   250.28072 
  20   6   1     0.43063   297.37585   293.31314 
  20   6   2     0.42900   555.60789   548.90553 
  20   6   3     0.42633     0.35097     0.34560 
  20   6   4     0.42268   299.31599   293.39141 
  20   6   5     0.41811    24.30827    23.65666 
  20   6   6     0.41273    92.74420    90.44065 
  20   6   7     0.40663   103.77893   101.52002 
  20   6   8     0.39992   213.83440   210.20366 
  20   6   9     0.39270   615.71456   614.40340 
  20   6  10     0.38508   325.26193   323.53176 
  20   6  11     0.37715   251.81560   254.83929 
  20   7   0     0.42792   283.76871   282.40572 
  20   7   1     0.42739     4.06582     4.05512 
  20   7   2     0.42580     1.98665     1.95278 
  20   7   3     0.42319    50.68173    49.58965 
  20   7   4     0.41961    31.19661    30.46465 
  20   7   5     0.41515    57.94726    56.72119 
  20   7   6     0.40988   137.75911   133.75257 
  20   7   7     0.40390     2.03321     2.00803 
  20   7   8     0.39732   151.16650   148.31392 
  20   7   9     0.39024     0.00021     0.00021 
  20   7  10     0.38276    45.34330    45.70032 
  20   7  11     0.37496     1.09119     1.12452 
  20   8   0     0.42426   123.80955   121.50337 
  20   8   1     0.42374    84.07715    82.45048 
  20   8   2     0.42219   322.43339   315.71379 
  20   8   3     0.41964   110.58793   107.98218 
  20   8   4     0.41616   666.78502   653.19957 
  20   8   5     0.41180   109.47999   107.34115 
  20   8   6     0.40666   831.72146   813.70773 
  20   8   7     0.40082   259.65941   255.51658 
  20   8   8     0.39439   821.07185   819.01097 
  20   8   9     0.38746     0.54706     0.54976 
  20   8  10     0.38013   680.27088   686.14183 
  20   8  11     0.37249   334.97699   359.94481 
  20   9   0     0.42022     0.06959     0.06771 
  20   9   1     0.41971     5.26590     5.14051 
  20   9   2     0.41821   637.78533   620.75819 
  20   9   3     0.41574    79.45203    77.78583 
  20   9   4     0.41234   133.23139   130.24024 
  20   9   5     0.40811    41.09840    40.32519 
  20   9   6     0.40310    80.03626    78.50446 
  20   9   7     0.39741     7.80007     7.64698 
  20   9   8     0.39114   259.49681   258.63491 
  20   9   9     0.38437     4.81326     4.81703 
  20   9  10     0.37722    56.70431    57.39364 
  20  10   0     0.41584   270.26518   264.65763 
  20  10   1     0.41535   158.77279   155.39009 
  20  10   2     0.41389   571.19111   558.16761 
  20  10   3     0.41149    30.21599    29.62263 
  20  10   4     0.40820   276.77517   271.45794 
  20  10   5     0.40409     3.71618     3.67405 
  20  10   6     0.39923    82.18258    80.79288 
  20  10   7     0.39370    64.10805    63.84172 
  20  10   8     0.38760   182.20299   183.00316 
  20  10   9     0.38101   300.21815   302.81291 
  20  10  10     0.37404   271.92459   283.55392 
  20  11   0     0.41115   721.33343   705.75417 
  20  11   1     0.41068     3.37233     3.28617 
  20  11   2     0.40927    46.09423    44.81828 
  20  11   3     0.40695    33.45800    32.79339 
  20  11   4     0.40377   119.98798   118.39903 
  20  11   5     0.39979    38.81211    38.16487 
  20  11   6     0.39507   344.01489   341.91324 
  20  11   7     0.38972     0.51766     0.51743 
  20  11   8     0.38379   250.86331   252.56603 
  20  11   9     0.37740     7.70273     7.80110 
  20  12   0     0.40620   108.88423   106.39308 
  20  12   1     0.40574     1.15977     1.13544 
  20  12   2     0.40438   322.70877   319.34985 
  20  12   3     0.40215   142.07166   138.36110 
  20  12   4     0.39907   573.43831   563.18198 
  20  12   5     0.39523   130.78094   129.79227 
  20  12   6     0.39067   695.28734   692.88186 
  20  12   7     0.38549    29.62612    29.42371 
  20  12   8     0.37976   693.34934   698.22798 
  20  12   9     0.37356    21.23188    22.35171 
  20  13   0     0.40101     0.79148     0.77863 
  20  13   1     0.40057     1.80694     1.77720 
  20  13   2     0.39927   931.85539   916.27331 
  20  13   3     0.39711    19.78741    19.45008 
  20  13   4     0.39415   179.01456   178.46632 
  20  13   5     0.39045     0.23729     0.23659 
  20  13   6     0.38605   120.71543   120.15024 
  20  13   7     0.38105     2.43879     2.46014 
  20  13   8     0.37551   309.15889   316.73597 
  20  14   0     0.39563   249.98898   247.32621 
  20  14   1     0.39521    35.26424    35.00426 
  20  14   2     0.39395   565.52866   563.44774 
  20  14   3     0.39188    79.37073    79.27849 
  20  14   4     0.38904   338.81178   338.54969 
  20  14   5     0.38547    45.08223    44.77463 
  20  14   6     0.38124   197.41145   199.26648 
  20  14   7     0.37642     2.18093     2.21119 
  20  15   0     0.39008   508.36103   507.51238 
  20  15   1     0.38968     0.12539     0.12535 
  20  15   2     0.38847     1.03249     1.03152 
  20  15   3     0.38649     0.16046     0.16046 
  20  15   4     0.38376    24.26065    24.43122 
  20  15   5     0.38033     0.03536     0.03567 
  20  15   6     0.37627   245.60037   249.36093 
  20  16   0     0.38440   113.38118   113.43303 
  20  16   1     0.38401    23.95142    24.07197 
  20  16   2     0.38286   331.50422   334.10890 
  20  16   3     0.38096    38.26062    38.58713 
  20  16   4     0.37835   434.69807   440.07072 
  20  16   5     0.37506    14.64824    15.07990 
  20  17   0     0.37862    99.93830   100.99957 
  20  17   1     0.37825     1.28789     1.30446 
  20  17   2     0.37715   235.65199   238.48147 
  20  17   3     0.37533     2.99837     3.07785 
  20  17   4     0.37283     6.95522     7.42668 
  20  18   0     0.37276   249.19555   266.41748 
  20  18   1     0.37241    10.05920    10.82636 
  21   0   1     0.41909    62.15121    60.69489 
  21   0   2     0.41760    16.61410    16.17110 
  21   0   3     0.41513   683.83334   669.37539 
  21   0   4     0.41176    23.45272    22.99691 
  21   0   5     0.40754     9.09286     8.93579 
  21   0   6     0.40255    78.73348    76.73977 
  21   0   7     0.39688   434.37798   427.78468 
  21   0   8     0.39063   179.09558   178.48835 
  21   0   9     0.38390   663.69413   667.74434 
  21   0  10     0.37677    35.75875    36.18520 
  21   1   1     0.41886   461.32841   450.09775 
  21   1   2     0.41737     2.15654     2.09988 
  21   1   3     0.41491   210.70137   206.29988 
  21   1   4     0.41154     5.01467     4.91693 
  21   1   5     0.40732     6.37065     6.25753 
  21   1   6     0.40234    30.60757    29.80647 
  21   1   7     0.39669   140.11154   138.18749 
  21   1   8     0.39045    24.96785    24.89428 
  21   1   9     0.38372   145.76479   146.81596 
  21   1  10     0.37660     9.72932     9.85194 
  21   2   1     0.41817   231.31555   225.12656 
  21   2   2     0.41668    45.51298    44.48535 
  21   2   3     0.41423  1336.82605  1308.42104 
  21   2   4     0.41088    84.00741    81.99431 
  21   2   5     0.40668    33.84878    33.12046 
  21   2   6     0.40173    32.58108    31.83261 
  21   2   7     0.39610   433.32773   428.08528 
  21   2   8     0.38988   128.51952   128.39922 
  21   2   9     0.38318   497.34047   501.38972 
  21   2  10     0.37609   564.64377   574.45956 
  21   3   1     0.41702   532.83951   519.63487 
  21   3   2     0.41554    26.68823    26.12096 
  21   3   3     0.41312   148.80080   144.90574 
  21   3   4     0.40979    10.71310    10.40177 
  21   3   5     0.40563     0.98106     0.96150 
  21   3   6     0.40071     1.73976     1.71176 
  21   3   7     0.39512   106.20054   105.50627 
  21   3   8     0.38895     4.72761     4.72316 
  21   3   9     0.38230   179.20674   180.75021 
  21   3  10     0.37526    59.77301    61.40634 
  21   4   1     0.41543   157.58648   154.23054 
  21   4   2     0.41397    33.68166    32.92795 
  21   4   3     0.41157  1237.07894  1213.05862 
  21   4   4     0.40828    33.04728    32.40290 
  21   4   5     0.40416    18.74750    18.54077 
  21   4   6     0.39929   143.68840   141.29826 
  21   4   7     0.39376   688.85332   686.05618 
  21   4   8     0.38766   299.75560   300.97263 
  21   4   9     0.38107  1038.01667  1047.18671 
  21   4  10     0.37409    51.50869    53.65874 
  21   5   1     0.41340   486.83975   474.34646 
  21   5   2     0.41197    16.15734    15.83257 
  21   5   3     0.40960   389.26574   378.03322 
  21   5   4     0.40636   179.48560   175.40478 
  21   5   5     0.40230     1.81846     1.77070 
  21   5   6     0.39750    27.16633    26.61201 
  21   5   7     0.39204    71.17293    71.11220 
  21   5   8     0.38601     5.37383     5.34712 
  21   5   9     0.37951    50.03936    50.34841 
  21   5  10     0.37262    19.49297    20.89779 
  21   6   1     0.41097   237.60335   232.09456 
  21   6   2     0.40956    33.38796    32.42742 
  21   6   3     0.40724  1144.50633  1123.71240 
  21   6   4     0.40405    61.29108    60.58356 
  21   6   5     0.40006   110.14042   108.24343 
  21   6   6     0.39534    22.35117    22.16111 
  21   6   7     0.38997   558.45451   557.77113 
  21   6   8     0.38403    90.47933    90.91855 
  21   6   9     0.37763   625.07707   633.59942 
  21   7   1     0.40816   834.09773   818.23521 
  21   7   2     0.40677   147.82720   144.72591 
  21   7   3     0.40449   195.82546   193.77067 
  21   7   4     0.40137    36.50674    35.82002 
  21   7   5     0.39746    57.09709    55.95300 
  21   7   6     0.39282    86.32472    86.10743 
  21   7   7     0.38755    42.08991    42.28169 
  21   7   8     0.38173     2.37797     2.40166 
  21   7   9     0.37544   174.47152   178.88625 
  21   8   1     0.40497   219.35961   216.47333 
  21   8   2     0.40362    11.43406    11.27100 
  21   8   3     0.40140   912.51899   895.07444 
  21   8   4     0.39834    35.18013    34.36271 
  21   8   5     0.39452    52.67431    52.54415 
  21   8   6     0.38999    74.98316    74.88544 
  21   8   7     0.38483   517.26459   515.32280 
  21   8   8     0.37912   189.03619   190.34258 
  21   8   9     0.37296   759.35204   808.88014 
  21   9   1     0.40146   712.53146   698.43191 
  21   9   2     0.40014    58.83046    57.81424 
  21   9   3     0.39797   698.70348   682.39060 
  21   9   4     0.39499   336.28146   334.48758 
  21   9   5     0.39126     0.10810     0.10777 
  21   9   6     0.38684    72.66181    72.91461 
  21   9   7     0.38181    42.59342    43.01239 
  21   9   8     0.37623    13.98616    14.20582 
  21  10   1     0.39763   321.76893   314.84109 
  21  10   2     0.39635    32.61128    32.21087 
  21  10   3     0.39424   813.31360   811.03794 
  21  10   4     0.39135    12.54820    12.51168 
  21  10   5     0.38772   209.44666   210.22296 
  21  10   6     0.38342     9.07908     9.15286 
  21  10   7     0.37851   428.24033   433.10190 
  21  10   8     0.37308    78.40966    83.32647 
  21  11   1     0.39353   983.80364   979.72718 
  21  11   2     0.39229   163.46855   163.31146 
  21  11   3     0.39025   160.05774   159.69089 
  21  11   4     0.38744   198.01800   199.00307 
  21  11   5     0.38391    80.34692    80.82647 
  21  11   6     0.37974    60.96262    61.38621 
  21  11   7     0.37497    53.56324    55.19603 
  21  12   1     0.38918   268.70810   268.58149 
  21  12   2     0.38798     0.98312     0.98499 
  21  12   3     0.38600   578.82501   575.89366 
  21  12   4     0.38328    14.21127    14.32762 
  21  12   5     0.37987   248.75265   250.64150 
  21  12   6     0.37582    55.51210    56.66699 
  21  13   1     0.38461   386.08955   385.36444 
  21  13   2     0.38345   158.50820   159.79199 
  21  13   3     0.38154   468.16346   472.86452 
  21  13   4     0.37892   233.29205   235.22944 
  21  13   5     0.37562    27.23750    27.87036 
  21  14   1     0.37985   438.56919   441.86082 
  21  14   2     0.37874     3.11034     3.14061 
  21  14   3     0.37690   438.64312   443.79737 
  21  14   4     0.37436    16.48349    17.10109 
  21  15   1     0.37493   353.05922   363.95157 
  21  15   2     0.37386   143.97289   150.62572 
  21  15   3     0.37209     0.89420     0.96778 
  22   0   0     0.40053   264.98929   260.58780 
  22   0   1     0.40009   103.25446   101.47412 
  22   0   2     0.39878    29.14112    28.54327 
  22   0   3     0.39664     1.86947     1.84434 
  22   0   4     0.39369    96.81718    96.41478 
  22   0   5     0.38999     3.67313     3.66823 
  22   0   6     0.38562   362.64414   360.15850 
  22   0   7     0.38063     9.49926     9.57971 
  22   0   8     0.37511     0.75089     0.77267 
  22   1   0     0.40032    50.46966    49.60405 
  22   1   1     0.39989    29.97914    29.47213 
  22   1   2     0.39858    45.94781    44.93007 
  22   1   3     0.39644    81.75550    80.73175 
  22   1   4     0.39350     1.87118     1.86350 
  22   1   5     0.38981   138.43152   138.33808 
  22   1   6     0.38544    11.56776    11.48938 
  22   1   7     0.38045   145.66862   146.94492 
  22   1   8     0.37494    17.96643    18.51990 
  22   2   0     0.39972   629.95602   619.55022 
  22   2   1     0.39928    81.05867    79.70726 
  22   2   2     0.39798   212.60836   207.63966 
  22   2   3     0.39585   132.16068   130.61230 
  22   2   4     0.39292   459.78200   458.48567 
  22   2   5     0.38925    68.12536    68.10122 
  22   2   6     0.38489  1270.08008  1264.74559 
  22   2   7     0.37993   344.08822   346.80711 
  22   2   8     0.37444   145.08570   150.37494 
  22   3   0     0.39871    23.91650    23.41198 
  22   3   1     0.39828     0.00003     0.00003 
  22   3   2     0.39699   169.70916   166.98158 
  22   3   3     0.39488    86.87392    86.49965 
  22   3   4     0.39197    13.05101    13.03892 
  22   3   5     0.38832   179.82035   179.75703 
  22   3   6     0.38400    34.27475    34.45244 
  22   3   7     0.37907    32.15327    32.38534 
  22   3   8     0.37362     4.62933     4.86787 
  22   4   0     0.39732   465.47017   456.69833 
  22   4   1     0.39689   185.81853   182.98324 
  22   4   2     0.39562    64.94413    64.25654 
  22   4   3     0.39352    12.61897    12.56681 
  22   4   4     0.39064   221.18018   220.42658 
  22   4   5     0.38703     0.11331     0.11383 
  22   4   6     0.38275   775.89399   782.00413 
  22   4   7     0.37787    29.81681    30.23361 
  22   4   8     0.37247    22.86596    24.58208 
  22   5   0     0.39555   233.53199   231.16581 
  22   5   1     0.39513    83.42912    82.87583 
  22   5   2     0.39387    78.55579    78.25050 
  22   5   3     0.39180    25.57909    25.54370 
  22   5   4     0.38896    38.69602    38.66028 
  22   5   5     0.38540    33.50080    33.27747 
  22   5   6     0.38117    18.23206    18.39897 
  22   5   7     0.37635   219.16839   222.34534 
  22   6   0     0.39342   580.91151   578.58181 
  22   6   1     0.39300    34.90824    34.80125 
  22   6   2     0.39177   260.34501   259.94982 
  22   6   3     0.38973   155.72268   155.64849 
  22   6   4     0.38693   430.61733   432.37687 
  22   6   5     0.38342   100.50606   101.32223 
  22   6   6     0.37926   993.27716   999.56705 
  22   6   7     0.37451   167.31338   173.25569 
  22   7   0     0.39094    38.02480    37.88944 
  22   7   1     0.39054    24.67924    24.60035 
  22   7   2     0.38932   488.92045   488.80946 
  22   7   3     0.38733    86.49919    86.94560 
  22   7   4     0.38458    72.50084    72.38806 
  22   7   5     0.38113   212.97522   214.89885 
  22   7   6     0.37704    34.43301    34.84033 
  22   7   7     0.37238     0.04437     0.04778 
  22   8   0     0.38815   365.06472   365.31616 
  22   8   1     0.38775   122.84265   123.27791 
  22   8   2     0.38656   104.72029   104.80282 
  22   8   3     0.38460    41.06747    40.99352 
  22   8   4     0.38191   241.78678   244.10685 
  22   8   5     0.37854    10.75874    10.87904 
  22   8   6     0.37453   642.07519   664.73052 
  22   9   0     0.38505   381.73786   379.77254 
  22   9   1     0.38466   172.74677   172.34290 
  22   9   2     0.38350    59.46920    59.94574 
  22   9   3     0.38159    27.54577    27.82318 
  22   9   4     0.37896    51.46173    51.87217 
  22   9   5     0.37566    25.80231    26.38897 
  22  10   0     0.38167   431.30701   435.63346 
  22  10   1     0.38129     2.78483     2.81146 
  22  10   2     0.38016   332.21521   335.10466 
  22  10   3     0.37830   115.24305   116.69676 
  22  10   4     0.37574   490.60073   501.30991 
  22  10   5     0.37252    63.12356    67.79015 
  22  11   0     0.37804     0.26270     0.26630 
  22  11   1     0.37767    46.81879    47.46400 
  22  11   2     0.37657   354.11118   358.63479 
  22  11   3     0.37476   172.05490   177.68019 
  22  11   4     0.37227    19.59035    21.13904 
  22  12   0     0.37417   252.27399   262.45916 
  22  12   1     0.37382    32.31193    33.83249 
  22  12   2     0.37275   170.76608   182.59979 
  23   0   1     0.38273   179.25014   180.66385 
  23   0   2     0.38159    66.90415    67.57784 
  23   0   3     0.37970   130.68495   131.57466 
  23   0   4     0.37712   205.70034   208.15683 
  23   0   5     0.37386   573.86088   600.33895 
  23   1   1     0.38255   138.32852   139.44834 
  23   1   2     0.38141    33.79125    34.12458 
  23   1   3     0.37953    24.07196    24.22197 
  23   1   4     0.37695   106.40488   107.65455 
  23   1   5     0.37370     1.07258     1.12569 
  23   2   1     0.38202   630.57627   636.45064 
  23   2   2     0.38089   190.39267   191.99168 
  23   2   3     0.37901   147.41479   148.53127 
  23   2   4     0.37644   200.22095   202.96004 
  23   2   5     0.37321   323.70347   343.16941 
  23   3   1     0.38115   127.24050   128.39496 
  23   3   2     0.38002    57.42213    57.89566 
  23   3   3     0.37816   182.33369   184.75479 
  23   3   4     0.37560    48.07034    49.19730 
  23   3   5     0.37239    32.46115    34.95018 
  23   4   1     0.37993   346.32430   349.05138 
  23   4   2     0.37881   135.16744   136.40279 
  23   4   3     0.37697   269.09411   272.25934 
  23   4   4     0.37444   287.98180   298.49958 
  23   5   1     0.37838   388.71195   393.44181 
  23   5   2     0.37728    12.68451    12.84111 
  23   5   3     0.37546     6.88219     7.05476 
  23   5   4     0.37295   166.77218   177.65777 
  23   6   1     0.37651   606.83231   614.81266 
  23   6   2     0.37543   102.54830   105.15571 
  23   6   3     0.37363   190.12490   199.79799 
  23   7   1     0.37434   149.53101   155.18309 
  23   7   2     0.37327    90.46633    95.77759
  
data_d6_MAPbI3_10K_p_02
_diffrn_radiation_wavelength     2.665
# 1 Angstrom bandwith with centre wavelengths of 2.665 Angstrom      
loop_
_pd_proc_point_id
_pd_meas_time_of_flight
_pd_proc_d_spacing
_pd_proc_intensity_total
_pd_calc_intensity_total
_pd_proc_ls_weight
         1 25984.00730     1.15036    47.83872    52.65271     0.58060
         2 26004.79451     1.15128    52.18417    59.74527     0.53118
         3 26025.59834     1.15220    59.75702    62.94418     0.48354
         4 26046.41882     1.15313    54.04128    60.68851     0.52654
         5 26067.25596     1.15405    51.78486    59.00704     0.54231
         6 26088.10976     1.15497    50.66767    59.82387     0.57164
         7 26108.98025     1.15590    61.07167    65.34713     0.49343
         8 26129.86743     1.15682    92.78543    93.46229     0.35623
         9 26150.77133     1.15775   167.17295   163.36225     0.21699
        10 26171.69194     1.15867   237.12415   210.71990     0.16049
        11 26192.62930     1.15960   195.31765   184.37587     0.19612
        12 26213.58340     1.16053   133.50258   138.28864     0.27892
        13 26234.55427     1.16146    92.99386   105.97768     0.38686
        14 26255.54191     1.16239    80.49856    91.25713     0.44430
        15 26276.54634     1.16332    79.86133    86.42412     0.45889
        16 26297.56758     1.16425    75.48685    79.20400     0.48885
        17 26318.60564     1.16518    62.93160    69.25268     0.57565
        18 26339.66052     1.16611    57.60412    61.46246     0.62243
        19 26360.73225     1.16704    54.47575    57.73526     0.66650
        20 26381.82083     1.16798    56.01911    58.02042     0.66077
        21 26402.92629     1.16891    54.98680    58.47558     0.69043
        22 26424.04863     1.16985    52.00324    56.78866     0.72948
        23 26445.18787     1.17078    53.61317    54.26072     0.71963
        24 26466.34402     1.17172    48.53625    52.87536     0.80543
        25 26487.51710     1.17266    51.98768    54.79666     0.76682
        26 26508.70711     1.17360    57.41237    58.73633     0.71315
        27 26529.91408     1.17454    60.55459    59.78231     0.69436
        28 26551.13801     1.17548    60.39942    61.38190     0.70956
        29 26572.37892     1.17642    69.45819    67.77642     0.63335
        30 26593.63682     1.17736    75.28345    70.12218     0.60504
        31 26614.91173     1.17830    70.05574    69.38312     0.64526
        32 26636.20366     1.17924    73.11915    73.54347     0.62952
        33 26657.51262     1.18019    80.35618    80.23029     0.59609
        34 26678.83863     1.18113    78.07329    78.19668     0.61106
        35 26700.18170     1.18207    68.94520    69.60478     0.67903
        36 26721.54185     1.18302    58.06014    61.88219     0.78866
        37 26742.91908     1.18397    56.00567    57.77923     0.80341
        38 26764.31342     1.18491    61.94178    59.42527     0.75029
        39 26785.72487     1.18586    71.75494    69.64090     0.68872
        40 26807.15345     1.18681    82.13147    78.22104     0.61304
        41 26828.59917     1.18776    87.40491    84.53009     0.58584
        42 26850.06205     1.18871   105.34652   103.25716     0.50967
        43 26871.54210     1.18966   127.49380   121.98308     0.42961
        44 26893.03933     1.19061   122.11708   120.74885     0.45168
        45 26914.55377     1.19157   110.16066   115.12622     0.49584
        46 26936.08541     1.19252    99.70813   106.84993     0.55676
        47 26957.63428     1.19348    87.41608    93.72872     0.62710
        48 26979.20038     1.19443    75.60666    83.87014     0.71418
        49 27000.78374     1.19539    71.35792    76.13492     0.74963
        50 27022.38437     1.19634    67.02011    72.10320     0.80204
        51 27044.00228     1.19730    67.42318    70.17895     0.81907
        52 27065.63748     1.19826    66.96580    69.78971     0.83143
        53 27087.28999     1.19922    66.03612    67.82644     0.85436
        54 27108.95982     1.20018    60.11801    62.77918     0.92650
        55 27130.64699     1.20114    58.61728    60.59344     0.95200
        56 27152.35151     1.20210    70.37369    69.82663     0.83990
        57 27174.07339     1.20306    92.14929    95.11804     0.68313
        58 27195.81265     1.20402   103.15164   104.59615     0.62636
        59 27217.56930     1.20499    95.65600    97.14485     0.67943
        60 27239.34335     1.20595    96.49888    94.79582     0.67805
        61 27261.13483     1.20691    98.28564    92.56164     0.67757
        62 27282.94374     1.20788   111.25579   107.59592     0.61996
        63 27304.77009     1.20885   148.90164   152.57607     0.48942
        64 27326.61391     1.20981   167.92079   166.91772     0.44037
        65 27348.47520     1.21078   145.89445   143.05234     0.51024
        66 27370.35398     1.21175   111.46816   111.74228     0.65878
        67 27392.25026     1.21272    78.94334    86.22505     0.89870
        68 27414.16406     1.21369    66.13038    70.44631     1.04408
        69 27436.09539     1.21466    57.01896    61.80943     1.20118
        70 27458.04427     1.21563    56.47222    58.09444     1.21801
        71 27480.01070     1.21661    58.46032    58.82506     1.19348
        72 27501.99471     1.21758    68.21118    67.39375     1.06845
        73 27523.99631     1.21855    82.62001    83.10491     0.93387
        74 27546.01551     1.21953    97.80997    95.62965     0.81761
        75 27568.05232     1.22050   101.13300    97.94094     0.80035
        76 27590.10676     1.22148    85.96692    84.51686     0.93548
        77 27612.17885     1.22246    67.99453    71.30954     1.16114
        78 27634.26859     1.22344    62.73615    63.51076     1.25006
        79 27656.37600     1.22442    62.19718    61.61592     1.27502
        80 27678.50110     1.22540    76.39134    74.81046     1.10136
        81 27700.64391     1.22638   116.73965   118.67881     0.76936
        82 27722.80442     1.22736   156.92513   151.17009     0.59481
        83 27744.98266     1.22834   134.76137   132.60205     0.69881
        84 27767.17865     1.22932   101.67143   102.69525     0.90291
        85 27789.39239     1.23031    79.64565    81.31327     1.11300
        86 27811.62391     1.23129    67.75003    69.96375     1.28063
        87 27833.87321     1.23228    70.96670    72.86909     1.24832
        88 27856.14030     1.23326    88.81709    85.73099     1.04077
        89 27878.42522     1.23425    87.83304    83.37503     1.06233
        90 27900.72796     1.23524    69.26080    69.38213     1.28439
        91 27923.04854     1.23622    56.77938    59.39337     1.52638
        92 27945.38698     1.23721    50.90914    54.28757     1.66745
        93 27967.74329     1.23820    50.02907    52.37715     1.69850
        94 27990.11748     1.23919    49.58577    53.59853     1.75895
        95 28012.50958     1.24019    51.97419    55.36223     1.71445
        96 28034.91958     1.24118    51.73689    54.25462     1.74791
        97 28057.34752     1.24217    51.77619    53.48820     1.77847
        98 28079.79340     1.24316    52.92670    56.18093     1.79743
        99 28102.25723     1.24416    58.70005    60.63965     1.66641
       100 28124.73904     1.24516    67.40531    69.72671     1.48079
       101 28147.23883     1.24615    73.51913    79.14547     1.41637
       102 28169.75662     1.24715    73.34799    77.37663     1.43037
       103 28192.29243     1.24815    65.03382    67.99919     1.57093
       104 28214.84626     1.24915    57.50893    59.44527     1.76735
       105 28237.41814     1.25014    52.75000    54.31013     1.91489
       106 28260.00807     1.25114    49.15745    52.13359     2.03049
       107 28282.61608     1.25215    50.18777    51.67242     2.00275
       108 28305.24217     1.25315    49.61126    51.41474     2.02863
       109 28327.88636     1.25415    52.35637    53.31714     1.94919
       110 28350.54867     1.25515    55.55163    59.89372     1.89962
       111 28373.22911     1.25616    66.40497    69.05816     1.64915
       112 28395.92770     1.25716    74.83982    77.34716     1.52285
       113 28418.64444     1.25817    77.46437    78.38270     1.48955
       114 28441.37935     1.25918    67.46218    68.76204     1.66672
       115 28464.13246     1.26018    57.32434    59.19477     1.89946
       116 28486.90376     1.26119    51.48786    53.83768     2.10369
       117 28509.69329     1.26220    49.86894    51.38456     2.17885
       118 28532.50104     1.26321    50.37515    50.62981     2.13329
       119 28555.32704     1.26422    52.88184    52.10967     2.09379
       120 28578.17130     1.26523    63.19839    62.16299     1.85004
       121 28601.03384     1.26625    81.29602    85.52527     1.50082
       122 28623.91467     1.26726    90.14282    92.91963     1.39790
       123 28646.81380     1.26827    78.56389    79.43922     1.56272
       124 28669.73125     1.26929    66.06415    68.73469     1.81454
       125 28692.66703     1.27030    61.86247    63.58186     1.92465
       126 28715.62117     1.27132    58.65940    59.11016     2.01427
       127 28738.59367     1.27234    53.85381    55.64728     2.18417
       128 28761.58454     1.27335    51.68999    53.93067     2.25808
       129 28784.59381     1.27437    52.42369    52.22346     2.21422
       130 28807.62148     1.27539    50.22262    51.15806     2.30560
       131 28830.66758     1.27641    50.44037    51.18251     2.31052
       132 28853.73211     1.27744    53.94284    52.84495     2.20325
       133 28876.81510     1.27846    62.09350    59.80259     1.98140
       134 28899.91655     1.27948    84.42739    84.14737     1.54406
       135 28923.03649     1.28050   124.53691   124.97531     1.10737
       136 28946.17491     1.28153   133.95828   130.52010     1.03909
       137 28969.33185     1.28255   110.07844   110.16411     1.24671
       138 28992.50732     1.28358   103.20873   101.07358     1.31685
       139 29015.70133     1.28461    91.86959    89.41538     1.45946
       140 29038.91389     1.28563    84.43333    81.70926     1.57208
       141 29062.14502     1.28666    94.66866    94.85389     1.43966
       142 29085.39473     1.28769   103.99100   106.81348     1.32290
       143 29108.66305     1.28872    94.47165    95.76559     1.44478
       144 29131.94998     1.28975    77.84882    77.40089     1.69772
       145 29155.25554     1.29079    67.84856    67.55024     1.92097
       146 29178.57974     1.29182    65.25215    65.07321     1.97562
       147 29201.92261     1.29285    61.47303    61.20879     2.08230
       148 29225.28415     1.29389    58.70704    58.08482     2.16834
       149 29248.66437     1.29492    56.94239    56.14939     2.24277
       150 29272.06331     1.29596    55.37279    53.69079     2.29106
       151 29295.48096     1.29700    54.33354    52.94907     2.35459
       152 29318.91734     1.29803    60.20184    59.10616     2.16201
       153 29342.37247     1.29907    76.77155    78.00586     1.76764
       154 29365.84637     1.30011    84.70837    89.66423     1.66088
       155 29389.33905     1.30115    77.44495    78.00315     1.77990
       156 29412.85052     1.30219    62.85569    63.41664     2.11872
       157 29436.38080     1.30323    56.30490    55.26730     2.31498
       158 29459.92991     1.30428    51.55655    51.42613     2.50854
       159 29483.49785     1.30532    49.67190    49.69094     2.60992
       160 29507.08465     1.30637    48.51363    48.90100     2.65058
       161 29530.69032     1.30741    48.97036    48.42158     2.63194
       162 29554.31487     1.30846    49.45237    48.24226     2.62623
       163 29577.95832     1.30950    49.81774    48.64573     2.63296
       164 29601.62069     1.31055    51.83879    50.92927     2.55648
       165 29625.30198     1.31160    54.46116    55.63789     2.47346
       166 29649.00222     1.31265    55.25526    57.15552     2.47277
       167 29672.72143     1.31370    55.16943    55.43882     2.47485
       168 29696.45960     1.31475    54.35477    55.71041     2.52916
       169 29720.21677     1.31580    56.83746    56.84071     2.46893
       170 29743.99294     1.31686    59.76364    59.64678     2.35502
       171 29767.78814     1.31791    68.33654    66.84522     2.13059
       172 29791.60237     1.31896    78.98171    81.31979     1.89510
       173 29815.43565     1.32002    89.49209    91.85480     1.72328
       174 29839.28800     1.32108    80.86782    83.62157     1.90137
       175 29863.15943     1.32213    71.52742    71.54866     2.08714
       176 29887.04996     1.32319    62.94172    62.18302     2.34908
       177 29910.95960     1.32425    56.96950    56.94438     2.56125
       178 29934.88837     1.32531    55.19285    54.57764     2.62880
       179 29958.83628     1.32637    52.19397    52.22057     2.77211
       180 29982.80335     1.32743    52.13648    50.45132     2.76028
       181 30006.78959     1.32849    50.49521    50.00244     2.84487
       182 30030.79502     1.32956    52.47892    51.46925     2.77815
       183 30054.81966     1.33062    53.20062    54.57682     2.78460
       184 30078.86351     1.33168    55.28469    56.34732     2.72769
       185 30102.92660     1.33275    57.32892    56.93807     2.65308
       186 30127.00894     1.33382    60.51341    61.38979     2.54830
       187 30151.11055     1.33488    67.92883    70.84879     2.33883
       188 30175.23144     1.33595    71.36171    73.72018     2.24698
       189 30199.37162     1.33702    69.40962    69.42996     2.30863
       190 30223.53112     1.33809    74.54079    73.92422     2.18175
       191 30247.70995     1.33916    81.92345    84.00418     2.02993
       192 30271.90811     1.34023    84.98361    87.38103     1.97843
       193 30296.12564     1.34130    88.05399    90.35337     1.92052
       194 30320.36254     1.34238    81.72969    84.96846     2.06070
       195 30344.61883     1.34345    80.77029    80.91901     2.08696
       196 30368.89453     1.34453    82.86757    82.98515     2.06591
       197 30393.18964     1.34560    76.56560    75.54658     2.20155
       198 30417.50419     1.34668    65.53116    65.50689     2.51379
       199 30441.83820     1.34776    65.56772    63.84364     2.50657
       200 30466.19167     1.34883    76.86301    78.32077     2.22061
       201 30490.56462     1.34991    97.03572    97.95230     1.82329
       202 30514.95707     1.35099    94.80903    95.48008     1.88088
       203 30539.36904     1.35207    96.18948    95.07186     1.86152
       204 30563.80053     1.35316   126.74805   129.64544     1.46866
       205 30588.25157     1.35424   157.10575   163.66619     1.21706
       206 30612.72218     1.35532   137.22729   141.54944     1.37299
       207 30637.21235     1.35641   106.18491   106.77232     1.72891
       208 30661.72212     1.35749    88.86641    87.39411     2.04857
       209 30686.25150     1.35858    83.88781    77.34765     2.13642
       210 30710.80050     1.35967    92.79538    84.60992     1.98604
       211 30735.36914     1.36075   129.75092   130.97805     1.48075
       212 30759.95744     1.36184   174.44498   177.58706     1.13295
       213 30784.56540     1.36293   156.52866   154.18724     1.25589
       214 30809.19306     1.36402   111.49906   108.59954     1.71700
       215 30833.84041     1.36511    82.81617    79.54859     2.22543
       216 30858.50748     1.36621    68.53123    65.18605     2.62130
       217 30883.19429     1.36730    64.48164    60.99258     2.75100
       218 30907.90084     1.36839    65.53990    64.16553     2.74497
       219 30932.62716     1.36949    67.23560    65.55147     2.67228
       220 30957.37327     1.37058    62.14215    61.13986     2.88147
       221 30982.13917     1.37168    59.10912    57.41009     3.01005
       222 31006.92488     1.37278    63.54965    61.31918     2.86521
       223 31031.73042     1.37388    81.83420    80.37702     2.32944
       224 31056.55580     1.37498    99.54679    98.02419     1.98229
       225 31081.40105     1.37608    89.81450    88.88836     2.15948
       226 31106.26617     1.37718    74.10627    72.15225     2.52998
       227 31131.15118     1.37828    67.46149    65.65152     2.75726
       228 31156.05610     1.37938    72.67730    71.94012     2.60393
       229 31180.98094     1.38048    79.02379    77.19014     2.44697
       230 31205.92573     1.38159    71.74618    70.20052     2.63365
       231 31230.89047     1.38269    62.13913    60.47477     2.98893
       232 31255.87518     1.38380    55.45473    54.42314     3.27927
       233 31280.87988     1.38491    53.33999    51.44051     3.37604
       234 31305.90459     1.38602    50.76667    50.10205     3.57356
       235 31330.94931     1.38713    49.98439    49.72123     3.61594
       236 31356.01407     1.38823    51.65967    50.41792     3.50514
       237 31381.09888     1.38935    52.44803    51.97074     3.48105
       238 31406.20376     1.39046    54.28610    53.07547     3.38361
       239 31431.32872     1.39157    55.46760    53.89808     3.31233
       240 31456.47379     1.39268    54.89016    54.18487     3.38294
       241 31481.63897     1.39380    56.85322    55.31670     3.26329
       242 31506.82428     1.39491    58.86301    59.10722     3.22043
       243 31532.02974     1.39603    62.46477    61.66823     3.03850
       244 31557.25536     1.39715    67.08840    64.26796     2.87059
       245 31582.50116     1.39826    84.70032    81.28454     2.35798
       246 31607.76716     1.39938   135.42684   136.54075     1.56462
       247 31633.05338     1.40050   201.33934   200.63612     1.08881
       248 31658.35982     1.40162   192.38429   188.75631     1.13467
       249 31683.68651     1.40274   130.70493   132.62729     1.61332
       250 31709.03346     1.40387    90.75028    91.44544     2.24695
       251 31734.40069     1.40499    72.27997    70.44017     2.69812
       252 31759.78821     1.40611    62.65065    60.78431     3.08340
       253 31785.19604     1.40724    61.59970    57.70381     3.09733
       254 31810.62419     1.40836    64.34965    59.88242     2.98210
       255 31836.07269     1.40949    72.97891    68.96999     2.69616
       256 31861.54155     1.41062    88.43701    88.46810     2.30045
       257 31887.03078     1.41175    95.85841    96.95405     2.12962
       258 31912.54041     1.41288    85.54115    85.07345     2.35875
       259 31938.07044     1.41401    73.80119    71.42119     2.67074
       260 31963.62090     1.41514    69.25525    66.65733     2.81958
       261 31989.19179     1.41627    69.38019    67.23374     2.81971
       262 32014.78315     1.41740    68.34442    66.65341     2.85381
       263 32040.39497     1.41854    67.24228    67.22147     2.88707
       264 32066.02729     1.41967    64.59256    64.89254     2.99761
       265 32091.68011     1.42081    59.96980    60.02570     3.18048
       266 32117.35346     1.42195    59.29250    58.59861     3.21618
       267 32143.04734     1.42308    64.03943    63.47500     3.03347
       268 32168.76178     1.42422    75.28267    73.49416     2.64208
       269 32194.49679     1.42536    95.58493    95.09918     2.17172
       270 32220.25238     1.42650   129.33382   128.00739     1.65845
       271 32246.02858     1.42764   141.92835   135.47713     1.53226
       272 32271.82541     1.42879   120.92441   117.90963     1.76239
       273 32297.64287     1.42993   116.06956   116.14323     1.82940
       274 32323.48098     1.43107   115.56316   118.93187     1.84603
       275 32349.33977     1.43222   101.80255   103.91936     2.06232
       276 32375.21924     1.43336    86.97734    85.96509     2.36939
       277 32401.11941     1.43451    75.46639    73.19712     2.66458
       278 32427.04031     1.43566    67.05848    64.81643     2.95079
       279 32452.98194     1.43681    67.43763    64.09975     2.94236
       280 32478.94433     1.43796    76.58426    75.08473     2.68172
       281 32504.92748     1.43911    97.81287    96.87295     2.17228
       282 32530.93143     1.44026   121.74626   117.17146     1.79617
       283 32556.95617     1.44141   116.82640   110.97648     1.86316
       284 32583.00174     1.44256    97.75407    93.49169     2.17909
       285 32609.06814     1.44372    92.13696    86.73900     2.28887
       286 32635.15539     1.44487    93.81321    85.63252     2.25761
       287 32661.26352     1.44603   102.66973    96.52862     2.09336
       288 32687.39253     1.44719   127.36764   125.90432     1.74423
       289 32713.54244     1.44834   127.97702   128.77016     1.73607
       290 32739.71327     1.44950   100.41387   100.60722     2.14992
       291 32765.90504     1.45066    78.35430    76.06716     2.65694
       292 32792.11777     1.45182    64.75884    62.78456     3.12543
       293 32818.35146     1.45299    59.22886    56.24762     3.36042
       294 32844.60614     1.45415    54.57497    53.08453     3.64017
       295 32870.88183     1.45531    54.58551    51.83807     3.59977
       296 32897.17853     1.45648    55.68148    52.25203     3.54349
       297 32923.49628     1.45764    55.30996    54.70373     3.61603
       298 32949.83507     1.45881    59.93151    58.26942     3.39473
       299 32976.19494     1.45997    60.23464    58.13217     3.38316
       300 33002.57590     1.46114    55.95032    55.03136     3.58127
       301 33028.97796     1.46231    53.07394    53.05412     3.75896
       302 33055.40114     1.46348    54.94449    54.37595     3.66081
       303 33081.84546     1.46465    60.13926    60.16738     3.39377
       304 33108.31094     1.46582    65.31873    64.73571     3.18312
       305 33134.79759     1.46700    65.71871    65.24668     3.16275
       306 33161.30543     1.46817    71.11272    71.66652     3.01866
       307 33187.83447     1.46935    81.10244    80.68418     2.68334
       308 33214.38474     1.47052    77.05263    76.76437     2.79440
       309 33240.95625     1.47170    65.89815    66.44588     3.19125
       310 33267.54901     1.47288    59.17162    59.56828     3.50966
       311 33294.16305     1.47405    56.78695    57.13287     3.64303
       312 33320.79838     1.47523    60.24845    60.17818     3.48276
       313 33347.45502     1.47641    72.17084    73.18179     2.98661
       314 33374.13298     1.47759    92.42112    95.02041     2.42724
       315 33400.83229     1.47878   122.02254   122.23385     1.89844
       316 33427.55296     1.47996   148.37584   144.89779     1.60721
       317 33454.29500     1.48114   164.84456   167.37794     1.44682
       318 33481.05843     1.48233   195.40627   188.67197     1.24424
       319 33507.84328     1.48351   165.87327   160.24607     1.44633
       320 33534.64955     1.48470   110.64849   114.33952     2.09239
       321 33561.47727     1.48589    81.86076    85.47612     2.72622
       322 33588.32646     1.48708    72.77773    73.78243     3.00671
       323 33615.19712     1.48827    78.64038    77.16386     2.84378
       324 33642.08928     1.48946    97.52470    95.22273     2.35019
       325 33669.00295     1.49065   132.26818   134.08930     1.80785
       326 33695.93815     1.49184   172.13842   171.84606     1.41623
       327 33722.89490     1.49304   153.03528   153.09547     1.57768
       328 33749.87322     1.49423   111.77966   113.01419     2.09897
       329 33776.87311     1.49543    90.86163    90.13646     2.53877
       330 33803.89461     1.49662    95.51054    91.60094     2.42879
       331 33830.93773     1.49782   131.00832   131.76112     1.83727
       332 33858.00248     1.49902   206.16004   209.12392     1.21037
       333 33885.08888     1.50022   249.20114   245.45852     1.01544
       334 33912.19695     1.50142   194.54213   196.62582     1.29041
       335 33939.32671     1.50262   131.82104   132.92025     1.84110
       336 33966.47817     1.50382    92.83283    93.66020     2.52278
       337 33993.65135     1.50503    75.31194    73.52064     3.00215
       338 34020.84627     1.50623    64.95169    63.27683     3.43000
       339 34048.06295     1.50743    60.38295    58.04909     3.65177
       340 34075.30140     1.50864    57.79731    55.69915     3.75451
       341 34102.56164     1.50985    57.33732    55.31592     3.82203
       342 34129.84369     1.51106    61.30560    58.21115     3.60473
       343 34157.14757     1.51226    75.32340    72.45129     3.01992
       344 34184.47328     1.51347    99.18050    98.75558     2.38409
       345 34211.82086     1.51469   103.54557   105.44603     2.30885
       346 34239.19032     1.51590    88.64202    88.59566     2.64275
       347 34266.58167     1.51711    76.02314    74.52442     3.03795
       348 34293.99494     1.51832    74.66911    74.41890     3.09779
       349 34321.43013     1.51954    82.98313    83.52155     2.84271
       350 34348.88728     1.52075    87.48492    87.41141     2.71709
       351 34376.36639     1.52197    86.19378    86.08765     2.75266
       352 34403.86748     1.52319    87.99355    86.50372     2.72285
       353 34431.39057     1.52441    93.94109    91.20667     2.56792
       354 34458.93569     1.52563    89.20469    87.09190     2.70026
       355 34486.50284     1.52685    73.48370    74.11311     3.19119
       356 34514.09204     1.52807    61.66387    62.86080     3.67308
       357 34541.70331     1.52929    55.38173    56.39026     4.03935
       358 34569.33667     1.53052    52.60038    52.97443     4.20065
       359 34596.99214     1.53174    51.42684    51.21044     4.25866
       360 34624.66974     1.53297    50.26954    50.68123     4.35680
       361 34652.36947     1.53419    51.27213    51.67739     4.29870
       362 34680.09137     1.53542    52.76029    53.16501     4.20016
       363 34707.83544     1.53665    52.08828    52.72944     4.24100
       364 34735.60171     1.53788    50.59910    51.18921     4.36090
       365 34763.39019     1.53911    49.63944    50.06970     4.41743
       366 34791.20090     1.54034    48.23145    49.52908     4.51320
       367 34819.03386     1.54157    48.70468    49.38400     4.51773
       368 34846.88909     1.54280    50.64227    49.66693     4.33495
       369 34874.76660     1.54404    51.28964    51.42569     4.32202
       370 34902.66642     1.54527    55.78875    57.51798     4.05056
       371 34930.58855     1.54651    64.82116    66.39566     3.60067
       372 34958.53302     1.54775    67.75798    68.11995     3.45617
       373 34986.49985     1.54899    63.17139    62.53729     3.67453
       374 35014.48905     1.55023    57.39118    58.10855     3.97871
       375 35042.50064     1.55147    58.97505    57.81998     3.88188
       376 35070.53464     1.55271    59.55948    57.43583     3.85779
       377 35098.59107     1.55395    55.67697    54.66292     4.10521
       378 35126.66994     1.55519    52.29400    51.98434     4.29248
       379 35154.77127     1.55644    49.89187    50.42603     4.48440
       380 35182.89509     1.55768    49.04637    49.63470     4.55009
       381 35211.04141     1.55893    49.84941    49.25068     4.44356
       382 35239.21024     1.56018    47.64493    49.08548     4.66257
       383 35267.40161     1.56142    48.15114    49.01467     4.59788
       384 35295.61553     1.56267    48.53927    49.00353     4.56183
       385 35323.85202     1.56392    48.63845    49.06906     4.55952
       386 35352.11110     1.56517    49.10509    49.20206     4.51902
       387 35380.39279     1.56643    48.44414    49.41025     4.58602
       388 35408.69711     1.56768    48.88221    49.74374     4.53026
       389 35437.02407     1.56893    49.04921    50.33457     4.53228
       390 35465.37368     1.57019    50.30573    51.92620     4.46415
       391 35493.74598     1.57145    56.99209    58.68823     4.02982
       392 35522.14098     1.57270    77.17025    78.67302     3.14035
       393 35550.55869     1.57396   109.29420   100.17722     2.32619
       394 35578.99914     1.57522   105.54137    97.52886     2.38483
       395 35607.46234     1.57648    85.01880    87.09264     2.87625
       396 35635.94831     1.57774    80.95516    85.23672     2.99947
       397 35664.45707     1.57900    77.28715    80.45227     3.14209
       398 35692.98863     1.58027    68.31301    70.20698     3.46010
       399 35721.54302     1.58153    62.09759    63.76745     3.77830
       400 35750.12026     1.58280    66.21480    64.33282     3.57663
       401 35778.72035     1.58406    71.00235    69.67138     3.37062
       402 35807.34333     1.58533    80.45738    79.15382     3.01582
       403 35835.98921     1.58660    86.65480    86.14300     2.83346
       404 35864.65800     1.58787    83.67186    84.08781     2.91582
       405 35893.34972     1.58914    77.73484    76.76847     3.09375
       406 35922.06440     1.59041    67.46437    67.43127     3.51435
       407 35950.80205     1.59168    61.22616    60.84330     3.78593
       408 35979.56270     1.59296    59.85554    59.66479     3.87479
       409 36008.34635     1.59423    70.33005    69.73681     3.35831
       410 36037.15302     1.59551    97.83061    96.10476     2.53955
       411 36065.98275     1.59678   119.32427   114.94043     2.13688
       412 36094.83553     1.59806   105.28928   104.50210     2.37862
       413 36123.71140     1.59934    82.69132    84.74756     2.93133
       414 36152.61037     1.60062    68.49966    70.46528     3.42091
       415 36181.53246     1.60190    60.12512    61.96363     3.81475
       416 36210.47768     1.60318    56.73724    57.56657     3.99474
       417 36239.44607     1.60446    55.81132    55.17153     4.05725
       418 36268.43762     1.60575    53.76492    53.62434     4.16140
       419 36297.45237     1.60703    54.27338    53.48444     4.11618
       420 36326.49034     1.60832    57.62262    57.67897     3.92886
       421 36355.55153     1.60960    67.71367    70.23347     3.48910
       422 36384.63597     1.61089    79.23971    81.51790     3.03543
       423 36413.74368     1.61218    74.71211    77.06161     3.19153
       424 36442.87467     1.61347    64.20962    66.53650     3.61544
       425 36472.02897     1.61476    58.26368    59.78264     3.91056
       426 36501.20660     1.61605    54.72068    57.02084     4.12000
       427 36530.40756     1.61735    54.51834    55.81089     4.10400
       428 36559.63189     1.61864    54.10890    55.19851     4.16084
       429 36588.87959     1.61994    58.39638    56.55865     3.86819
       430 36618.15070     1.62123    67.96132    66.40370     3.46193
       431 36647.44522     1.62253   102.86431   102.18456     2.39892
       432 36676.76317     1.62383   158.93106   156.93780     1.62931
       433 36706.10458     1.62513   172.90825   166.37761     1.49941
       434 36735.46947     1.62643   132.16042   130.57535     1.90991
       435 36764.85784     1.62773    99.28587   101.34799     2.48508
       436 36794.26973     1.62903    92.27599    94.09714     2.63167
       437 36823.70514     1.63033    93.23560    93.61802     2.61096
       438 36853.16411     1.63164    81.85733    83.26495     2.91524
       439 36882.64664     1.63294    70.55303    71.00636     3.29902
       440 36912.15276     1.63425    64.80758    64.27606     3.54661
       441 36941.68248     1.63556    61.73960    60.34531     3.66732
       442 36971.23583     1.63686    57.59699    56.99110     3.92447
       443 37000.81281     1.63817    56.53846    55.14975     3.93774
       444 37030.41346     1.63949    59.01125    56.89377     3.81166
       445 37060.03779     1.64080    69.09649    67.66636     3.33786
       446 37089.68583     1.64211    85.54169    86.23807     2.78616
       447 37119.35757     1.64342    91.65897    91.25115     2.61470
       448 37149.05306     1.64474    79.20157    79.13009     2.96351
       449 37178.77230     1.64605    67.56762    66.64403     3.35594
       450 37208.51532     1.64737    58.48018    59.37033     3.78885
       451 37238.28213     1.64869    55.36125    55.57802     3.93212
       452 37268.07276     1.65001    51.67402    53.59456     4.17914
       453 37297.88722     1.65133    52.28811    52.59957     4.12459
       454 37327.72553     1.65265    51.82314    52.20761     4.13926
       455 37357.58771     1.65397    52.01417    52.31477     4.13135
       456 37387.47378     1.65529    53.59537    53.39659     4.00523
       457 37417.38376     1.65662    56.17082    56.91799     3.86551
       458 37447.31766     1.65794    63.00954    62.42602     3.50234
       459 37477.27552     1.65927    67.03394    65.40807     3.32408
       460 37507.25734     1.66060    70.99078    69.49501     3.17153
       461 37537.26314     1.66193    89.58627    88.10796     2.59019
       462 37567.29295     1.66326   122.67393   121.54993     1.95717
       463 37597.34679     1.66459   147.39091   147.91491     1.65390
       464 37627.42467     1.66592   151.96281   155.08732     1.61011
       465 37657.52661     1.66725   150.12778   153.20166     1.61802
       466 37687.65263     1.66859   144.88509   146.36602     1.67064
       467 37717.80275     1.66992   127.11120   125.51718     1.86690
       468 37747.97699     1.67126   117.99727   114.62077     2.00789
       469 37778.17537     1.67259   156.20002   158.28324     1.55737
       470 37808.39791     1.67393   264.14634   270.25062     0.94992
       471 37838.64463     1.67527   340.38008   328.60635     0.74050
       472 37868.91555     1.67661   269.02520   264.39646     0.92419
       473 37899.21068     1.67795   178.89113   180.75433     1.35832
       474 37929.53005     1.67929   133.42050   139.38541     1.77672
       475 37959.87367     1.68064   127.06946   129.80559     1.85031
       476 37990.24157     1.68198   116.22902   117.04474     2.01278
       477 38020.63376     1.68333    92.82099    94.42955     2.43250
       478 38051.05027     1.68468    74.34839    76.02670     2.95354
       479 38081.49111     1.68602    64.64883    65.23652     3.29277
       480 38111.95630     1.68737    58.71267    59.23959     3.58421
       481 38142.44587     1.68872    55.81587    55.78368     3.72880
       482 38172.95983     1.69007    54.34247    53.73310     3.76349
       483 38203.49819     1.69143    51.79575    52.56711     3.94667
       484 38234.06099     1.69278    51.57273    51.96497     3.93100
       485 38264.64824     1.69413    52.24659    51.95018     3.87846
       486 38295.25996     1.69549    51.75062    52.82440     3.96063
       487 38325.89617     1.69684    53.86559    53.89418     3.79625
       488 38356.55688     1.69820    52.84675    53.64144     3.87526
       489 38387.24213     1.69956    51.52263    52.60572     3.91172
       490 38417.95192     1.70092    51.19141    51.83481     3.90781
       491 38448.68629     1.70228    51.29863    51.49244     3.94253
       492 38479.44523     1.70364    50.77402    51.45804     3.93985
       493 38510.22879     1.70501    51.47119    51.75558     3.89367
       494 38541.03697     1.70637    53.02392    52.88632     3.80011
       495 38571.86980     1.70774    58.17474    57.70798     3.54073
       496 38602.72730     1.70910    73.51435    71.82132     2.89849
       497 38633.60948     1.71047    92.07648    89.62155     2.40256
       498 38664.51637     1.71184    92.67680    91.83327     2.38212
       499 38695.44798     1.71321    84.18512    83.28128     2.56603
       500 38726.40434     1.71458    78.00720    77.50740     2.74183
       501 38757.38546     1.71595    73.54703    74.63058     2.87734
       502 38788.39137     1.71732    69.23736    70.00801     3.02090
       503 38819.42208     1.71870    62.97723    64.22185     3.24242
       504 38850.47762     1.72007    59.78827    60.52585     3.41677
       505 38881.55800     1.72145    59.16629    59.98468     3.43622
       506 38912.66325     1.72282    66.38696    65.60589     3.11529
       507 38943.79338     1.72420    91.39357    92.20871     2.37296
       508 38974.94842     1.72558   160.04364   159.71285     1.42718
       509 39006.12837     1.72696   232.46422   231.50381     1.00736
       510 39037.33328     1.72834   236.77487   232.42645     0.98376
       511 39068.56314     1.72973   182.74822   180.99566     1.25622
       512 39099.81799     1.73111   132.14149   133.71118     1.68468
       513 39131.09785     1.73250   108.11930   109.14552     2.01921
       514 39162.40273     1.73388   104.79809   108.02308     2.06068
       515 39193.73265     1.73527   114.18995   118.63472     1.91069
       516 39225.08764     1.73666   111.81859   113.10728     1.94380
       517 39256.46771     1.73805    91.03388    92.46440     2.33574
       518 39287.87288     1.73944    73.84363    74.86214     2.77291
       519 39319.30318     1.74083    64.88246    64.62422     3.07087
       520 39350.75862     1.74222    58.15536    59.14385     3.39735
       521 39382.23923     1.74362    55.94414    56.30886     3.44907
       522 39413.74502     1.74501    54.49221    54.83497     3.55935
       523 39445.27602     1.74641    54.04217    54.20178     3.56377
       524 39476.83224     1.74780    53.99465    55.22083     3.56146
       525 39508.41370     1.74920    58.21886    58.47809     3.29721
       526 39540.02043     1.75060    60.65511    60.51636     3.19741
       527 39571.65245     1.75200    57.22309    58.72927     3.37557
       528 39603.30977     1.75340    55.99967    56.00981     3.40536
       529 39634.99242     1.75481    54.72715    54.44953     3.41588
       530 39666.70041     1.75621    54.71795    54.31716     3.43696
       531 39698.43377     1.75761    56.67189    56.68979     3.31912
       532 39730.19252     1.75902    64.16540    63.25049     2.96781
       533 39761.97667     1.76043    72.95858    70.19545     2.68259
       534 39793.78626     1.76184    78.75718    72.82253     2.48648
       535 39825.62128     1.76325    91.08476    84.41757     2.18043
       536 39857.48178     1.76466   130.69971   128.83947     1.58076
       537 39889.36777     1.76607   194.60348   190.75410     1.08893
       538 39921.27926     1.76748   205.93002   201.28768     1.02163
       539 39953.21628     1.76890   164.70858   164.32742     1.25518
       540 39985.17886     1.77031   124.06784   127.68542     1.63156
       541 40017.16700     1.77173   100.03193   100.42829     1.96286
       542 40049.18073     1.77314    83.02325    82.55827     2.29396
       543 40081.22008     1.77456    73.98979    74.10392     2.53331
       544 40113.28505     1.77598    69.90480    69.03619     2.63085
       545 40145.37568     1.77740    63.43543    63.18845     2.85328
       546 40177.49198     1.77883    59.00638    58.16434     2.98398
       547 40209.63398     1.78025    55.10096    54.99617     3.17886
       548 40241.80168     1.78167    52.86428    53.16164     3.26067
       549 40273.99513     1.78310    52.14592    52.07625     3.29033
       550 40306.21432     1.78452    52.93911    51.43754     3.19274
       551 40338.45929     1.78595    50.88020    51.07066     3.33692
       552 40370.73006     1.78738    51.23398    50.85645     3.29415
       553 40403.02664     1.78881    50.74412    50.73962     3.29233
       554 40435.34907     1.79024    51.98643    50.68860     3.19713
       555 40467.69735     1.79167    51.47473    50.68842     3.20130
       556 40500.07150     1.79311    51.42769    50.73853     3.17691
       557 40532.47156     1.79454    50.59293    50.84853     3.23967
       558 40564.89754     1.79598    50.84216    51.03957     3.22088
       559 40597.34946     1.79741    52.25307    51.35490     3.11623
       560 40629.82734     1.79885    52.20912    51.93611     3.12443
       561 40662.33120     1.80029    54.20879    53.51952     3.02130
       562 40694.86106     1.80173    61.67112    59.76584     2.69139
       563 40727.41695     1.80317    81.20244    79.18930     2.11482
       564 40759.99888     1.80462   110.50588   109.25682     1.60095
       565 40792.60688     1.80606   120.54323   119.27111     1.47953
       566 40825.24097     1.80750   102.76093   102.08759     1.68466
       567 40857.90116     1.80895    80.84795    81.36022     2.08492
       568 40890.58748     1.81040    66.75037    67.99837     2.43099
       569 40923.29995     1.81185    59.18076    60.56685     2.70050
       570 40956.03859     1.81330    55.48589    56.38850     2.83313
       571 40988.80342     1.81475    54.35294    53.98962     2.85635
       572 41021.59447     1.81620    51.50354    52.59699     2.98821
       573 41054.41174     1.81765    52.19169    51.78471     2.92179
       574 41087.25527     1.81911    51.77266    51.31081     2.91153
       575 41120.12508     1.82056    50.42868    51.03473     2.98897
       576 41153.02118     1.82202    50.79685    50.88015     2.95282
       577 41185.94359     1.82347    51.40272    50.81438     2.89812
       578 41218.89235     1.82493    49.85075    50.82150     2.97076
       579 41251.86746     1.82639    51.36378    50.88221     2.85645
       580 41284.86896     1.82785    51.14450    50.98956     2.85972
       581 41317.89685     1.82932    49.63629    51.19254     2.93994
       582 41350.95117     1.83078    50.95261    51.50910     2.85244
       583 41384.03193     1.83225    50.63857    51.92820     2.86042
       584 41417.13915     1.83371    52.43817    52.56043     2.75699
       585 41450.27287     1.83518    53.67038    53.88068     2.72950
       586 41483.43308     1.83665    59.33917    58.14465     2.46903
       587 41516.61983     1.83812    71.20259    71.74029     2.13299
       588 41549.83313     1.83959    98.19018    99.71407     1.60687
       589 41583.07299     1.84106   127.70641   128.95626     1.26882
       590 41616.33945     1.84253   138.19121   135.66603     1.16092
       591 41649.63252     1.84400   119.34935   117.86414     1.33065
       592 41682.95223     1.84548    95.36786    96.05649     1.62141
       593 41716.29859     1.84696    85.42704    86.66067     1.77794
       594 41749.67163     1.84843    92.15775    94.74318     1.65179
       595 41783.07137     1.84991   107.09560   107.27724     1.44901
       596 41816.49782     1.85139   104.19096   101.96075     1.48393
       597 41849.95102     1.85287    85.47439    85.04792     1.76030
       598 41883.43098     1.85436    70.27881    71.26170     2.07199
       599 41916.93773     1.85584    61.99054    63.34400     2.29679
       600 41950.47128     1.85732    57.50487    59.16590     2.44677
       601 41984.03165     1.85881    56.39405    57.22231     2.47462
       602 42017.61888     1.86030    56.61772    57.30320     2.44757
       603 42051.23298     1.86179    58.97662    60.25208     2.39816
       604 42084.87396     1.86327    64.55714    65.53206     2.21511
       605 42118.54186     1.86477    68.47819    69.73258     2.10118
       606 42152.23669     1.86626    77.38132    76.23175     1.87267
       607 42185.95848     1.86775   102.41935   104.93900     1.47383
       608 42219.70725     1.86924   172.17644   177.52972     0.91529
       609 42253.48302     1.87074   249.85190   250.77996     0.64230
       610 42287.28580     1.87224   246.49933   243.35039     0.65097
       611 42321.11563     1.87373   181.35499   182.09188     0.86687
       612 42354.97252     1.87523   127.14195   128.13740     1.18913
       613 42388.85650     1.87673    91.57025    95.93557     1.60136
       614 42422.76759     1.87823    75.13207    78.28961     1.89559
       615 42456.70580     1.87974    66.65655    68.97454     2.09360
       616 42490.67117     1.88124    65.19467    65.86579     2.12161
       617 42524.66370     1.88275    70.70364    69.01035     1.98010
       618 42558.68343     1.88425    79.37496    75.64853     1.78272
       619 42592.73038     1.88576    84.11969    82.87597     1.70944
       620 42626.80456     1.88727    92.62632    93.67286     1.55947
       621 42660.90601     1.88878    98.79622   100.14269     1.46135
       622 42695.03473     1.89029    98.35417    96.12577     1.46500
       623 42729.19076     1.89180   100.37736   101.24466     1.43761
       624 42763.37411     1.89332   133.27702   133.50079     1.10466
       625 42797.58481     1.89483   173.00085   165.04574     0.87486
       626 42831.82288     1.89635   167.05364   153.00447     0.88936
       627 42866.08834     1.89786   123.40303   118.92899     1.16895
       628 42900.38121     1.89938    93.00187    94.99436     1.49719
       629 42934.70151     1.90090    83.49832    89.01655     1.64830
       630 42969.04928     1.90242    90.22184    95.52990     1.53829
       631 43003.42452     1.90394    97.98162   101.45618     1.42282
       632 43037.82725     1.90547    99.64011   101.40809     1.38868
       633 43072.25752     1.90699    90.90861    95.28316     1.51286
       634 43106.71532     1.90852    79.88822    83.49795     1.68662
       635 43141.20069     1.91004    71.13541    72.28740     1.83780
       636 43175.71366     1.91157    63.54256    65.21348     2.02240
       637 43210.25423     1.91310    62.75987    61.95539     2.02197
       638 43244.82243     1.91463    65.68740    62.97030     1.95284
       639 43279.41829     1.91616    79.31839    75.12384     1.65739
       640 43314.04182     1.91770   115.98714   113.06413     1.16576
       641 43348.69306     1.91923   166.49501   168.10678     0.83842
       642 43383.37201     1.92076   186.56438   185.06357     0.75028
       643 43418.07871     1.92230   158.28391   155.84766     0.86886
       644 43452.81317     1.92384   126.94081   125.46469     1.06649
       645 43487.57542     1.92538   109.97967   109.07549     1.20757
       646 43522.36548     1.92692    97.78251    94.93469     1.32151
       647 43557.18337     1.92846    80.13710    80.53658     1.58209
       648 43592.02912     1.93000    70.19486    70.48945     1.75848
       649 43626.90274     1.93155    66.59858    67.14887     1.83962
       650 43661.80427     1.93309    75.66794    74.83927     1.62609
       651 43696.73371     1.93464    97.69482    96.94023     1.30637
       652 43731.69110     1.93619   118.03818   115.71582     1.09752
       653 43766.67645     1.93774   112.24476   109.28355     1.13921
       654 43801.68979     1.93929    92.81612    90.69120     1.33708
       655 43836.73114     1.94084    77.28707    77.06616     1.56772
       656 43871.80053     1.94239    72.20299    74.14589     1.67267
       657 43906.89797     1.94394    91.05637    90.98377     1.35236
       658 43942.02349     1.94550   135.84520   135.80506     0.94551
       659 43977.17710     1.94706   181.59547   174.77562     0.71549
       660 44012.35885     1.94861   176.21637   163.87423     0.73272
       661 44047.56873     1.95017   132.16743   128.37418     0.95063
       662 44082.80679     1.95173    99.48627    99.41890     1.22116
       663 44118.07303     1.95329    78.74106    81.00730     1.48923
       664 44153.36749     1.95486    69.03911    70.71158     1.66055
       665 44188.69019     1.95642    66.68594    68.20353     1.70892
       666 44224.04114     1.95798    70.59596    72.72756     1.62994
       667 44259.42037     1.95955    78.09906    76.91857     1.47802
       668 44294.82791     1.96112    73.51839    73.28651     1.54104
       669 44330.26377     1.96269    66.50815    65.83689     1.68004
       670 44365.72798     1.96426    60.18001    59.96729     1.82961
       671 44401.22056     1.96583    57.50458    56.47666     1.87293
       672 44436.74154     1.96740    53.22414    54.51816     2.00169
       673 44472.29093     1.96898    53.62671    53.43053     1.96087
       674 44507.86877     1.97055    54.12702    52.90432     1.93769
       675 44543.47506     1.97213    51.49152    52.91779     2.04236
       676 44579.10984     1.97370    53.13936    53.50078     1.95905
       677 44614.77313     1.97528    54.65500    54.12727     1.90316
       678 44650.46495     1.97686    53.95362    54.10152     1.90760
       679 44686.18532     1.97845    54.58101    53.81500     1.90229
       680 44721.93427     1.98003    53.07392    54.26554     1.93671
       681 44757.71182     1.98161    57.00907    57.63911     1.80613
       682 44793.51798     1.98320    66.66788    68.71665     1.58782
       683 44829.35280     1.98478    85.92849    87.56610     1.27183
       684 44865.21628     1.98637   101.36316    98.12147     1.09544
       685 44901.10845     1.98796    91.53899    90.29852     1.19265
       686 44937.02934     1.98955    74.97265    76.11156     1.41651
       687 44972.97896     1.99114    64.07461    65.61175     1.59121
       688 45008.95735     1.99274    56.78267    59.54544     1.75095
       689 45044.96451     1.99433    54.32800    56.16641     1.82632
       690 45081.00049     1.99593    52.83743    54.26212     1.86247
       691 45117.06529     1.99752    51.64793    53.18409     1.91006
       692 45153.15894     1.99912    52.08839    52.57596     1.87001
       693 45189.28146     2.00072    50.52039    52.26539     1.92961
       694 45225.43289     2.00232    51.70540    52.13210     1.87383
       695 45261.61324     2.00392    51.78857    52.08848     1.85597
       696 45297.82253     2.00552    51.49291    52.11960     1.87674
       697 45334.06079     2.00713    50.93565    52.22170     1.88446
       698 45370.32803     2.00873    52.83668    52.46206     1.81937
       699 45406.62430     2.01034    51.60474    52.79404     1.85461
       700 45442.94960     2.01195    53.97734    53.25131     1.78345
       701 45479.30396     2.01356    54.12034    54.04868     1.77165
       702 45515.68740     2.01517    55.49919    56.26250     1.74628
       703 45552.09995     2.01678    63.35381    64.37316     1.55154
       704 45588.54163     2.01840    82.96431    86.37852     1.23624
       705 45625.01246     2.02001   115.74803   117.50604     0.92140
       706 45661.51247     2.02163   129.16521   128.55874     0.83273
       707 45698.04168     2.02324   112.28633   112.74614     0.95135
       708 45734.60011     2.02486    92.13794    92.86892     1.12615
       709 45771.18779     2.02648    78.84000    80.09439     1.29134
       710 45807.80475     2.02810    70.65499    71.46051     1.40783
       711 45844.45099     2.02973    63.17460    64.71738     1.55802
       712 45881.12655     2.03135    58.83169    60.20022     1.65290
       713 45917.83145     2.03297    56.44807    57.70192     1.70059
       714 45954.56572     2.03460    55.14274    56.52755     1.73136
       715 45991.32937     2.03623    54.61023    56.16278     1.75761
       716 46028.12243     2.03786    53.66531    56.40832     1.78711
       717 46064.94493     2.03949    54.60934    57.34644     1.77319
       718 46101.79689     2.04112    56.98388    60.02149     1.68690
       719 46138.67832     2.04275    65.32367    69.64355     1.52059
       720 46175.58927     2.04439    94.26747    99.05498     1.10011
       721 46212.52974     2.04602   150.93757   151.41713     0.71895
       722 46249.49976     2.04766   197.40768   187.74118     0.56050
       723 46286.49936     2.04930   186.19175   177.84215     0.58902
       724 46323.52856     2.05094   161.02710   156.58981     0.67424
       725 46360.58738     2.05258   162.75008   162.35896     0.66790
       726 46397.67585     2.05422   197.82342   205.47423     0.55361
       727 46434.79399     2.05586   246.20263   252.99351     0.44836
       728 46471.94183     2.05751   244.96015   245.29560     0.45213
       729 46509.11938     2.05915   194.10029   191.21341     0.56028
       730 46546.32668     2.06080   135.27227   137.45091     0.78409
       731 46583.56374     2.06245   100.10209   102.45150     1.02259
       732 46620.83059     2.06410    81.47356    82.57888     1.21821
       733 46658.12726     2.06575    69.77734    71.57528     1.38824
       734 46695.45376     2.06740    64.71378    65.60773     1.48537
       735 46732.81012     2.06906    63.16661    62.67056     1.50584
       736 46770.19637     2.07071    60.79159    61.72896     1.54545
       737 46807.61253     2.07237    63.76298    62.64915     1.48411
       738 46845.05862     2.07403    68.00247    67.81081     1.39190
       739 46882.53466     2.07568    88.15903    88.56919     1.12266
       740 46920.04069     2.07735   145.66416   148.69297     0.70612
       741 46957.57672     2.07901   247.94785   248.89391     0.42894
       742 46995.14278     2.08067   323.59375   317.69265     0.32866
       743 47032.73890     2.08233   309.28866   301.24276     0.34215
       744 47070.36509     2.08400   239.19135   237.48192     0.43717
       745 47108.02138     2.08567   170.97036   171.86659     0.59461
       746 47145.70780     2.08734   120.86011   123.84787     0.82158
       747 47183.42436     2.08901    93.89376    94.29115     1.02049
       748 47221.17110     2.09068    76.01031    77.44316     1.23167
       749 47258.94804     2.09235    66.62381    68.02528     1.36792
       750 47296.75520     2.09402    63.40140    62.98148     1.41568
       751 47334.59260     2.09570    62.99974    61.06124     1.40931
       752 47372.46028     2.09738    62.66240    61.33261     1.40306
       753 47410.35825     2.09905    64.98931    62.42872     1.35715
       754 47448.28653     2.10073    67.03414    65.11820     1.31897
       755 47486.24516     2.10241    72.05492    71.78132     1.24718
       756 47524.23416     2.10409    78.24349    78.29352     1.15390
       757 47562.25355     2.10578    78.75629    77.63956     1.14604
       758 47600.30335     2.10746    73.48545    71.98527     1.20525
       759 47638.38359     2.10915    67.02621    65.95441     1.29895
       760 47676.49430     2.11084    63.10250    61.37286     1.34957
       761 47714.63549     2.11252    59.05690    58.67887     1.42046
       762 47752.80720     2.11421    56.84778    58.23615     1.49448
       763 47791.00945     2.11591    60.33089    60.69075     1.39309
       764 47829.24225     2.11760    61.45755    65.02787     1.38851
       765 47867.50565     2.11929    65.53933    67.02538     1.28854
       766 47905.79965     2.12099    64.04981    64.98452     1.30380
       767 47944.12429     2.12268    59.94085    61.78718     1.38435
       768 47982.47959     2.12438    58.23730    59.74963     1.40170
       769 48020.86558     2.12608    59.83621    59.43470     1.36393
       770 48059.28227     2.12778    60.96610    61.95985     1.35102
       771 48097.72969     2.12948    74.26553    73.18542     1.11908
       772 48136.20788     2.13119   106.69602   104.59462     0.81384
       773 48174.71684     2.13289   152.05513   154.43731     0.59522
       774 48213.25662     2.13460   186.34119   186.46694     0.48763
       775 48251.82722     2.13631   182.82291   182.02675     0.48911
       776 48290.42868     2.13802   176.14571   178.16902     0.50229
       777 48329.06103     2.13973   194.02602   194.95601     0.45898
       778 48367.72428     2.14144   199.02616   197.04079     0.44629
       779 48406.41846     2.14315   167.00576   164.78566     0.51700
       780 48445.14359     2.14487   121.49520   123.82871     0.69233
       781 48483.89971     2.14658    88.52399    94.13825     0.90983
       782 48522.68683     2.14830    74.01657    76.75986     1.06532
       783 48561.50497     2.15002    64.60775    66.99918     1.20100
       784 48600.35418     2.15174    59.68928    61.47502     1.29134
       785 48639.23446     2.15346    57.83837    58.29854     1.32001
       786 48678.14585     2.15518    55.76007    56.45943     1.37405
       787 48717.08837     2.15690    55.15914    55.38011     1.36422
       788 48756.06204     2.15863    54.52637    54.73089     1.38552
       789 48795.06689     2.16036    54.04773    54.34253     1.39350
       790 48834.10294     2.16209    52.26386    54.14524     1.41819
       791 48873.17022     2.16381    52.36066    54.13660     1.42038
       792 48912.26876     2.16555    55.38536    54.50939     1.33490
       793 48951.39857     2.16728    54.94857    55.78327     1.34436
       794 48990.55969     2.16901    55.17965    58.14020     1.33410
       795 49029.75214     2.17075    58.17317    60.06045     1.27619
       796 49068.97594     2.17248    59.03861    59.77592     1.23862
       797 49108.23112     2.17422    56.52264    58.14467     1.28511
       798 49147.51771     2.17596    55.79551    56.68440     1.29040
       799 49186.83572     2.17770    53.58373    55.89182     1.32167
       800 49226.18519     2.17944    54.89330    55.68510     1.28729
       801 49265.56614     2.18119    53.67569    56.07390     1.31163
       802 49304.97859     2.18293    57.27015    57.38148     1.24424
       803 49344.42257     2.18468    59.35730    59.86989     1.19814
       804 49383.89811     2.18643    62.88959    62.56317     1.11898
       805 49423.40523     2.18817    65.39229    64.09562     1.09557
       806 49462.94396     2.18993    67.17086    65.73426     1.05647
       807 49502.51431     2.19168    78.71585    73.10239     0.92271
       808 49542.11632     2.19343   109.24929   102.62738     0.68969
       809 49581.75001     2.19518   182.14624   181.97265     0.42621
       810 49621.41541     2.19694   298.42528   303.14772     0.26920
       811 49661.11255     2.19870   375.84766   372.41249     0.21401
       812 49700.84144     2.20046   339.62181   330.10674     0.23474
       813 49740.60211     2.20222   244.60739   239.40560     0.32022
       814 49780.39459     2.20398   166.32202   164.59255     0.45737
       815 49820.21891     2.20574   117.40273   117.88413     0.62731
       816 49860.07508     2.20751    91.53217    90.84119     0.78479
       817 49899.96314     2.20927    75.20469    75.47433     0.92538
       818 49939.88311     2.21104    69.06493    66.77198     0.97220
       819 49979.83502     2.21281    62.49824    61.79653     1.08103
       820 50019.81889     2.21458    61.22409    58.87461     1.08010
       821 50059.83474     2.21635    58.68752    57.09912     1.10610
       822 50099.88261     2.21812    59.09310    56.02408     1.09976
       823 50139.96252     2.21990    56.94275    55.41345     1.12625
       824 50180.07449     2.22167    55.10648    55.08430     1.16167
       825 50220.21855     2.22345    55.37919    54.92685     1.14389
       826 50260.39472     2.22523    55.09737    54.89321     1.14568
       827 50300.60304     2.22701    55.18747    54.97299     1.15274
       828 50340.84352     2.22879    55.67523    55.20134     1.13367
       829 50381.11619     2.23057    55.75387    55.74373     1.14840
       830 50421.42109     2.23236    57.56829    57.42550     1.10353
       831 50461.75822     2.23414    63.61331    63.20533     1.00537
       832 50502.12763     2.23593    79.30096    78.16758     0.83461
       833 50542.52933     2.23772    99.91721   101.21676     0.66744
       834 50582.96336     2.23951   112.86941   115.61201     0.59967
       835 50623.42973     2.24130   106.69111   108.84739     0.63458
       836 50663.92847     2.24309    90.64322    91.48032     0.72520
       837 50704.45961     2.24489    72.70628    76.48410     0.88602
       838 50745.02318     2.24668    64.68886    67.28338     0.96927
       839 50785.61920     2.24848    61.90847    62.37013     0.99713
       840 50826.24770     2.25028    62.08270    59.94920     0.98593
       841 50866.90869     2.25208    60.46623    59.41017     1.01868
       842 50907.60222     2.25388    63.53380    61.48054     0.97062
       843 50948.32830     2.25568    74.53754    71.41255     0.84052
       844 50989.08696     2.25749   102.05991   101.10825     0.64857
       845 51029.87823     2.25930   149.28943   153.70807     0.45712
       846 51070.70214     2.26110   189.02693   194.24909     0.36753
       847 51111.55870     2.26291   179.22282   184.61563     0.38854
       848 51152.44795     2.26472   143.32786   144.71034     0.47002
       849 51193.36990     2.26653   105.76407   107.82129     0.62154
       850 51234.32460     2.26835    81.48215    84.43554     0.79014
       851 51275.31206     2.27016    71.96220    71.44292     0.87878
       852 51316.33231     2.27198    64.84659    64.65076     0.95457
       853 51357.38537     2.27379    62.89409    62.13844     0.97663
       854 51398.47128     2.27561    64.74515    64.35019     0.95775
       855 51439.59006     2.27743    71.33694    72.07353     0.88329
       856 51480.74173     2.27926    79.42203    81.32942     0.81153
       857 51521.92633     2.28108    82.46822    83.45418     0.77412
       858 51563.14387     2.28290    76.77090    77.16815     0.82099
       859 51604.39438     2.28473    68.60839    68.73194     0.90365
       860 51645.67790     2.28656    62.47555    62.39820     0.97845
       861 51686.99444     2.28839    58.01664    58.60863     1.04829
       862 51728.34404     2.29022    57.91523    56.49390     1.04602
       863 51769.72671     2.29205    55.58515    55.30562     1.08561
       864 51811.14249     2.29388    55.95199    54.62312     1.06676
       865 51852.59141     2.29572    55.47796    54.27407     1.07735
       866 51894.07348     2.29755    52.89520    54.08396     1.13308
       867 51935.58874     2.29939    52.78742    53.98594     1.14093
       868 51977.13721     2.30123    52.61607    53.95738     1.14106
       869 52018.71892     2.30307    54.17951    53.98779     1.10949
       870 52060.33389     2.30491    54.09777    54.07438     1.10145
       871 52101.98216     2.30676    55.09597    54.23884     1.08984
       872 52143.66375     2.30860    53.94731    54.59608     1.11859
       873 52185.37868     2.31045    54.88996    55.68454     1.11344
       874 52227.12698     2.31230    59.07239    59.15598     1.02796
       875 52268.90868     2.31415    66.65132    67.20815     0.92781
       876 52310.72381     2.31600    74.04939    78.28156     0.84866
       877 52352.57239     2.31785    81.01571    84.07035     0.78196
       878 52394.45445     2.31971    76.83297    80.04725     0.82339
       879 52436.37001     2.32156    72.04083    71.70380     0.85257
       880 52478.31911     2.32342    63.65475    65.07865     0.95789
       881 52520.30176     2.32528    62.01551    62.52163     0.97572
       882 52562.31800     2.32714    63.81733    64.42574     0.95643
       883 52604.36786     2.32900    70.92166    68.82011     0.86568
       884 52646.45135     2.33086    72.79326    70.63033     0.85268
       885 52688.56851     2.33273    69.23633    67.73711     0.88924
       886 52730.71937     2.33459    63.74443    63.12081     0.95250
       887 52772.90394     2.33646    59.47411    59.51526     1.00138
       888 52815.12227     2.33833    57.93107    57.45532     1.00547
       889 52857.37436     2.34020    54.76710    56.47906     1.05075
       890 52899.66026     2.34207    53.48117    56.19689     1.08299
       891 52941.97999     2.34395    55.26963    56.52785     1.04327
       892 52984.33357     2.34582    58.59051    58.14841     0.98150
       893 53026.72104     2.34770    61.50970    63.87610     0.93166
       894 53069.14242     2.34957    76.74191    79.16827     0.77522
       895 53111.59773     2.35145   106.44251   105.46558     0.57601
       896 53154.08701     2.35334   131.75834   128.61358     0.47920
       897 53196.61028     2.35522   131.75658   129.92019     0.47459
       898 53239.16757     2.35710   113.57019   113.99924     0.54105
       899 53281.75890     2.35899    92.46733    96.52551     0.65536
       900 53324.38431     2.36087    81.21701    83.54595     0.71798
       901 53367.04382     2.36276    72.40826    73.78469     0.79434
       902 53409.73745     2.36465    64.85089    66.53153     0.86727
       903 53452.46524     2.36654    61.64774    61.78253     0.89203
       904 53495.22721     2.36844    58.85314    59.07813     0.92961
       905 53538.02340     2.37033    57.85588    57.79415     0.93805
       906 53580.85381     2.37223    57.58392    57.82723     0.92871
       907 53623.71850     2.37413    61.17731    60.06249     0.88001
       908 53666.61747     2.37602    64.00639    65.65690     0.86591
       909 53709.55077     2.37793    73.65582    72.88557     0.75806
       910 53752.51841     2.37983    73.69414    76.07683     0.76183
       911 53795.52042     2.38173    70.22261    73.11654     0.78921
       912 53838.55684     2.38364    66.76572    67.89050     0.81059
       913 53881.62768     2.38554    61.02122    64.06974     0.87825
       914 53924.73299     2.38745    61.41884    63.26984     0.86738
       915 53967.87277     2.38936    67.23843    68.39089     0.79987
       916 54011.04707     2.39127    85.74965    86.95619     0.64181
       917 54054.25591     2.39319   126.77292   124.66960     0.44913
       918 54097.49931     2.39510   166.90749   165.59026     0.34994
       919 54140.77731     2.39702   179.60968   175.22239     0.32297
       920 54184.08993     2.39893   149.96052   149.95015     0.38330
       921 54227.43721     2.40085   112.06736   115.79174     0.49470
       922 54270.81916     2.40277    86.15075    90.27379     0.61847
       923 54314.23581     2.40469    75.40656    75.33967     0.68773
       924 54357.68720     2.40662    65.49174    67.44479     0.77471
       925 54401.17335     2.40854    62.55252    63.61989     0.80237
       926 54444.69429     2.41047    61.32046    62.38835     0.81858
       927 54488.25004     2.41240    64.36543    63.42369     0.78419
       928 54531.84064     2.41433    70.39013    67.88383     0.71352
       929 54575.46612     2.41626    80.85056    80.60352     0.64426
       930 54619.12649     2.41819   112.80265   112.93121     0.47753
       931 54662.82179     2.42013   175.40054   171.59167     0.31568
       932 54706.55205     2.42206   236.54939   230.57384     0.23797
       933 54750.31729     2.42400   246.21862   241.39102     0.22845
       934 54794.11754     2.42594   202.94584   201.55252     0.27238
       935 54837.95284     2.42788   146.61567   148.80081     0.37042
       936 54881.82320     2.42982   107.42203   108.93411     0.48265
       937 54925.72866     2.43177    83.97785    85.29047     0.59741
       938 54969.66924     2.43371    72.28730    72.56663     0.67293
       939 55013.64498     2.43566    65.74263    65.97001     0.73001
       940 55057.65589     2.43761    62.44966    62.38369     0.76018
       941 55101.70202     2.43956    60.89559    60.07226     0.77833
       942 55145.78338     2.44151    59.00360    58.42430     0.78130
       943 55189.90001     2.44346    55.92481    57.31204     0.83111
       944 55234.05193     2.44541    56.17768    56.64422     0.81778
       945 55278.23917     2.44737    58.80475    56.30496     0.77438
       946 55322.46176     2.44933    57.57062    56.24213     0.79002
       947 55366.71973     2.45129    55.21649    56.44750     0.82632
       948 55411.01310     2.45325    57.19808    56.76735     0.78149
       949 55455.34191     2.45521    57.18141    56.83236     0.78851
       950 55499.70619     2.45717    56.60947    56.63064     0.79354
       951 55544.10595     2.45914    57.31146    56.37253     0.78007
       952 55588.54124     2.46111    55.01598    56.23501     0.79522
       953 55633.01207     2.46308    55.94601    56.25661     0.77510
       954 55677.51848     2.46505    54.45705    56.42317     0.80857
       955 55722.06049     2.46702    55.82515    56.74913     0.79047
       956 55766.63814     2.46899    57.84371    57.40415     0.76179
       957 55811.25145     2.47097    58.86060    59.03523     0.74583
       958 55855.90045     2.47294    63.43204    63.36902     0.68557
       959 55900.58518     2.47492    69.60350    72.43224     0.64289
       960 55945.30564     2.47690    81.37878    84.71433     0.54933
       961 55990.06189     2.47888    89.22632    92.53522     0.51028
       962 56034.85394     2.48087    88.74577    90.73430     0.50845
       963 56079.68182     2.48285    82.17786    84.18006     0.55234
       964 56124.54557     2.48484    81.54603    81.83284     0.54699
       965 56169.44520     2.48682    97.32942    95.62006     0.47333
       966 56214.38076     2.48881   149.94367   143.87473     0.31277
       967 56259.35226     2.49080   234.23652   235.14944     0.20798
       968 56304.35974     2.49280   325.97254   328.67491     0.15116
       969 56349.40323     2.49479   339.09830   349.17212     0.14503
       970 56394.48276     2.49679   285.34307   289.46953     0.17136
       971 56439.59834     2.49878   201.41617   206.68005     0.23707
       972 56484.75002     2.50078   143.25674   142.56519     0.32441
       973 56529.93782     2.50278   108.29599   103.95441     0.40839
       974 56575.16177     2.50478    86.80212    82.90705     0.50210
       975 56620.42190     2.50679    75.06456    71.65359     0.56658
       976 56665.71824     2.50879    67.25702    65.55555     0.61988
       977 56711.05081     2.51080    63.83594    62.16240     0.65342
       978 56756.41965     2.51281    62.26740    60.21830     0.65562
       979 56801.82479     2.51482    60.54006    59.10134     0.66918
       980 56847.26625     2.51683    60.17499    58.49994     0.66401
       981 56892.74406     2.51884    58.99985    58.23051     0.68304
       982 56938.25826     2.52086    59.00456    58.18850     0.66905
       983 56983.80886     2.52287    61.03014    58.34719     0.65164
       984 57029.39591     2.52489    61.10388    58.79651     0.64147
       985 57075.01943     2.52691    60.99090    60.02606     0.64669
       986 57120.67944     2.52893    67.58204    63.82359     0.59361
       987 57166.37599     2.53096    75.20295    74.10836     0.54187
       988 57212.10909     2.53298    92.36825    94.09441     0.45314
       989 57257.87877     2.53501   111.90294   118.18452     0.37875
       990 57303.68508     2.53703   125.48664   130.71723     0.34221
       991 57349.52803     2.53906   121.00652   125.67751     0.35410
       992 57395.40765     2.54110   107.87340   112.54872     0.39396
       993 57441.32397     2.54313    97.40816    99.20304     0.42525
       994 57487.27703     2.54516    83.94128    87.46694     0.49023
       995 57533.26685     2.54720    78.12720    78.41399     0.51985
       996 57579.29347     2.54924    72.96824    73.15029     0.55877
       997 57625.35690     2.55127    75.07060    72.60740     0.52843
       998 57671.45719     2.55332    85.97514    80.87641     0.47210
       999 57717.59435     2.55536   116.11832   111.77349     0.36411
      1000 57763.76843     2.55740   186.30326   186.79050     0.23795
      1001 57809.97944     2.55945   301.53446   304.31945     0.15111
      1002 57856.22743     2.56150   397.16493   399.25246     0.11578
      1003 57902.51241     2.56354   395.40822   395.75001     0.11616
      1004 57948.83442     2.56559   309.12422   312.10864     0.14743
      1005 57995.19349     2.56765   212.16149   216.08524     0.20893
      1006 58041.58964     2.56970   150.83218   146.49889     0.28643
      1007 58088.02291     2.57176   108.15518   105.77675     0.39158
      1008 58134.49333     2.57381    88.61348    83.84917     0.46654
      1009 58181.00093     2.57587    73.36824    72.16370     0.55640
      1010 58227.54573     2.57793    68.71370    65.78442     0.58520
      1011 58274.12776     2.57999    65.13443    62.15435     0.60606
      1012 58320.74707     2.58206    62.22115    60.00315     0.64657
      1013 58367.40366     2.58412    60.90479    58.70811     0.65098
      1014 58414.09759     2.58619    58.48840    57.90992     0.66547
      1015 58460.82886     2.58826    59.25266    57.38372     0.66538
      1016 58507.59753     2.59033    58.71806    57.00546     0.66877
      1017 58554.40361     2.59240    57.61013    56.71572     0.67593
      1018 58601.24713     2.59448    56.91681    56.48635     0.69066
      1019 58648.12813     2.59655    57.38812    56.30176     0.67719
      1020 58695.04663     2.59863    56.47782    56.15118     0.69871
      1021 58742.00267     2.60071    58.27323    56.02488     0.67891
      1022 58788.99627     2.60279    58.62788    55.89143     0.66420
      1023 58836.02747     2.60487    58.05583    55.79075     0.67304
      1024 58883.09629     2.60695    55.95114    55.71355     0.70120
      1025 58930.20276     2.60904    58.11019    55.64533     0.67848
      1026 58977.34693     2.61112    53.16207    55.59224     0.73735
      1027 59024.52880     2.61321    55.07441    55.55041     0.72515
      1028 59071.74843     2.61530    58.32592    55.51687     0.67893
      1029 59119.00583     2.61740    57.65675    55.48990     0.68305
      1030 59166.30103     2.61949    55.95415    55.46841     0.69859
      1031 59213.63407     2.62158    55.45228    55.45170     0.70586
      1032 59261.00498     2.62368    56.74757    55.43934     0.70308
      1033 59308.41378     2.62578    56.45859    55.43105     0.70818
      1034 59355.86051     2.62788    55.61412    55.30039     0.71902
      1035 59403.34520     2.62998    57.91974    55.19815     0.68442
      1036 59450.86788     2.63209    58.51495    55.16633     0.67762
      1037 59498.42857     2.63419    59.20486    55.16828     0.68035
      1038 59546.02732     2.63630    58.14538    55.18962     0.69087
      1039 59593.66414     2.63841    55.72113    55.22557     0.71856
      1040 59641.33907     2.64052    55.50669    55.29635     0.71364
      1041 59689.05214     2.64263    56.69605    55.41303     0.70472
      1042 59736.80338     2.64474    56.61311    55.62731     0.70337
      1043 59784.59282     2.64686    56.08055    56.20088     0.71764
      1044 59832.42050     2.64898    57.37141    57.65258     0.69780
      1045 59880.28644     2.65110    57.25649    60.34316     0.70865
      1046 59928.19066     2.65322    59.46877    63.44266     0.69643
      1047 59976.13322     2.65534    63.02248    64.81341     0.64974
      1048 60024.11412     2.65746    60.01875    63.55694     0.68855
      1049 60072.13341     2.65959    59.49105    61.01864     0.67814
      1050 60120.19112     2.66172    57.62732    58.73434     0.69806
      1051 60168.28727     2.66384    56.97701    57.25393     0.71228
      1052 60216.42190     2.66598    55.59926    56.44127     0.72674
      1053 60264.59504     2.66811    56.04998    56.02628     0.72377
      1054 60312.80672     2.67024    57.57585    55.82115     0.69574
      1055 60361.05696     2.67238    57.12435    55.72431     0.71589
      1056 60409.34581     2.67452    57.90325    55.68513     0.69618
      1057 60457.67329     2.67665    55.70684    55.67942     0.72479
      1058 60506.03942     2.67880    56.85533    55.69543     0.70846
      1059 60554.44426     2.68094    56.93175    55.72696     0.71377
      1060 60602.88781     2.68308    55.41063    55.78894     0.72271
      1061 60651.37012     2.68523    55.83463    55.87081     0.70852
      1062 60699.89122     2.68738    57.59127    55.96650     0.68956
      1063 60748.45113     2.68953    55.56498    56.07057     0.71704
      1064 60797.04989     2.69168    57.71522    56.19472     0.70031
      1065 60845.68753     2.69383    55.85088    56.35096     0.71978
      1066 60894.36408     2.69599    56.40051    56.55562     0.70673
      1067 60943.07957     2.69814    58.27427    56.83613     0.68681
      1068 60991.83404     2.70030    55.49624    57.25881     0.72170
      1069 61040.62750     2.70246    57.16073    58.17472     0.68131
      1070 61089.46001     2.70462    59.83637    60.50158     0.67114
      1071 61138.33157     2.70679    64.47780    66.66569     0.63129
      1072 61187.24224     2.70895    75.81833    80.75995     0.54117
      1073 61236.19203     2.71112    96.00553   103.77126     0.44004
      1074 61285.18099     2.71329   112.89006   126.30759     0.38906
      1075 61334.20913     2.71546   114.73537   132.59917     0.37808
      1076 61383.27650     2.71763   111.30007   119.74465     0.38229
      1077 61432.38312     2.71980    92.95270    99.23232     0.44976
      1078 61481.52903     2.72198    76.04029    81.78529     0.53140
      1079 61530.71425     2.72416    67.03567    70.69154     0.59679
      1080 61579.93882     2.72633    63.53172    64.62794     0.61441
      1081 61629.20277     2.72851    62.94529    61.52248     0.61418
      1082 61678.50613     2.73070    60.42217    59.96779     0.64010
      1083 61727.84894     2.73288    61.08615    59.21456     0.63848
      1084 61777.23122     2.73507    59.78826    58.89922     0.63561
      1085 61826.65300     2.73726    59.52443    58.85048     0.64374
      1086 61876.11432     2.73944    57.54440    58.98512     0.65190
      1087 61925.61522     2.74164    56.42993    59.26867     0.67926
      1088 61975.15571     2.74383    59.81905    59.70762     0.62545
      1089 62024.73583     2.74602    60.31724    60.37094     0.62072
      1090 62074.35562     2.74822    63.02112    61.53783     0.59383
      1091 62124.01511     2.75042    63.34272    64.24687     0.59450
      1092 62173.71432     2.75262    69.66330    71.32946     0.54669
      1093 62223.45329     2.75482    84.75447    87.25413     0.47146
      1094 62273.23205     2.75702   110.32952   113.35011     0.37196
      1095 62323.05064     2.75923   135.00375   139.92730     0.30928
      1096 62372.90908     2.76144   146.22511   149.25169     0.28219
      1097 62422.80741     2.76365   135.08170   137.35865     0.30087
      1098 62472.74565     2.76586   111.69716   117.60974     0.36306
      1099 62522.72385     2.76807   104.32297   105.09846     0.37772
      1100 62572.74203     2.77028   115.93238   113.49755     0.34590
      1101 62622.80022     2.77250   168.48579   163.67109     0.24357
      1102 62672.89846     2.77472   279.67560   278.19386     0.15241
      1103 62723.03678     2.77694   443.00008   441.54243     0.09747
      1104 62773.21521     2.77916   546.58660   563.62290     0.07971
      1105 62823.43378     2.78138   532.28517   553.46289     0.08151
      1106 62873.69253     2.78360   425.49780   436.02401     0.10043
      1107 62923.99148     2.78583   298.67271   297.85957     0.14069
      1108 62974.33068     2.78806   201.38204   194.00416     0.20537
      1109 63024.71014     2.79029   141.58347   132.17515     0.28097
      1110 63075.12991     2.79252   107.11048    99.67975     0.36459
      1111 63125.59001     2.79475    93.04779    84.29108     0.41277
      1112 63176.09048     2.79699    84.67733    78.96303     0.44102
      1113 63226.63136     2.79923    86.34677    79.18531     0.42814
      1114 63277.21266     2.80147    85.41123    80.06559     0.43050
      1115 63327.83443     2.80371    81.93770    77.77051     0.44999
      1116 63378.49670     2.80595    76.53181    72.75085     0.47349
      1117 63429.19950     2.80819    69.05853    67.55542     0.52006
      1118 63479.94286     2.81044    67.40939    63.74502     0.52855
      1119 63530.72681     2.81269    63.54107    61.40570     0.56344
      1120 63581.55139     2.81494    62.46276    60.05384     0.55988
      1121 63632.41663     2.81719    59.83734    59.25782     0.57155
      1122 63683.32257     2.81944    58.93830    58.76363     0.58547
      1123 63734.26922     2.82170    57.57168    58.44323     0.59091
      1124 63785.25664     2.82396    59.09472    58.24312     0.59050
      1125 63836.28485     2.82621    58.16216    58.17748     0.59680
      1126 63887.35387     2.82847    60.42271    58.38958     0.56534
      1127 63938.46376     2.83074    59.54903    59.23032     0.58243
      1128 63989.61453     2.83300    62.02803    61.08604     0.56203
      1129 64040.80622     2.83527    66.46754    63.71092     0.52174
      1130 64092.03886     2.83754    67.56495    65.68127     0.51554
      1131 64143.31249     2.83980    68.84571    65.54069     0.50711
      1132 64194.62714     2.84208    65.07909    63.58695     0.52471
      1133 64245.98285     2.84435    60.25482    61.21276     0.56978
      1134 64297.37963     2.84662    62.96930    59.37822     0.52497
      1135 64348.81754     2.84890    61.37284    58.25898     0.54211
      1136 64400.29659     2.85118    58.52920    57.65131     0.57009
      1137 64451.81683     2.85346    59.43339    57.33470     0.55378
      1138 64503.37828     2.85574    55.21380    56.96791     0.60693
      1139 64554.98098     2.85803    58.21858    56.79481     0.55905
      1140 64606.62497     2.86031    55.00985    56.80101     0.60444
      1141 64658.31027     2.86260    56.76006    56.89233     0.57322
      1142 64710.03692     2.86489    56.57725    56.95156     0.57982
      1143 64761.80495     2.86718    58.43525    56.90681     0.56137
      1144 64813.61439     2.86948    57.81414    56.79269     0.56703
      1145 64865.46528     2.87177    56.65618    56.67878     0.57609
      1146 64917.35765     2.87407    58.08718    56.60118     0.55766
      1147 64969.29154     2.87637    55.98441    56.55963     0.57232
      1148 65021.26697     2.87867    55.47225    56.53519     0.58388
      1149 65073.28399     2.88097    59.17246    56.52725     0.54283
      1150 65125.34261     2.88327    57.39603    56.52830     0.55224
      1151 65177.44289     2.88558    54.47660    56.53385     0.58292
      1152 65229.58484     2.88789    56.62684    56.54181     0.55555
      1153 65281.76851     2.89020    56.64890    56.55113     0.55837
      1154 65333.99393     2.89251    54.75540    56.56125     0.57552
      1155 65386.26112     2.89482    58.17939    56.57188     0.54508
      1156 65438.57013     2.89714    54.84414    56.58879     0.56787
      1157 65490.92099     2.89946    55.41669    56.60954     0.56160
      1158 65543.31372     2.90178    56.05106    56.62889     0.55144
      1159 65595.74837     2.90410    56.90887    56.64495     0.54358
      1160 65648.22497     2.90642    57.23267    56.65971     0.54048
      1161 65700.74355     2.90875    57.63514    56.67405     0.53871
      1162 65753.30415     2.91107    56.53936    56.68837     0.54064
      1163 65805.90679     2.91340    56.63582    56.70285     0.54746
      1164 65858.55152     2.91573    56.51525    56.71627     0.53765
      1165 65911.23836     2.91806    57.65973    56.72780     0.52854
      1166 65963.96735     2.92040    57.30632    56.74182     0.53486
      1167 66016.73852     2.92273    57.61010    56.75726     0.53282
      1168 66069.55191     2.92507    57.99009    56.77359     0.52712
      1169 66122.40755     2.92741    57.03014    56.79063     0.53318
      1170 66175.30548     2.92975    57.49289    56.80835     0.52420
      1171 66228.24572     2.93209    57.09158    56.82681     0.52710
      1172 66281.22832     2.93444    56.88669    56.84611     0.51191
      1173 66334.25330     2.93679    54.30097    56.86642     0.55958
      1174 66387.32071     2.93914    56.74418    56.88793     0.52904
      1175 66440.43056     2.94149    58.28433    56.91091     0.50450
      1176 66493.58291     2.94384    57.09634    56.93554     0.51516
      1177 66546.77777     2.94619    56.62437    56.96246     0.52675
      1178 66600.01520     2.94855    57.64672    56.99313     0.51677
      1179 66653.29521     2.95091    58.17828    57.02796     0.50722
      1180 66706.61784     2.95327    56.44542    57.06743     0.52574
      1181 66759.98314     2.95563    55.71182    57.11278     0.53634
      1182 66813.39112     2.95800    56.73072    57.16657     0.50998
      1183 66866.84184     2.96036    55.08486    57.23232     0.52727
      1184 66920.33531     2.96273    54.48957    57.31540     0.53432
      1185 66973.87158     2.96510    56.35783    57.42541     0.51324
      1186 67027.45068     2.96747    57.14948    57.58663     0.49591
      1187 67081.07264     2.96985    57.86464    57.88478     0.49339
      1188 67134.73750     2.97222    56.89020    58.61797     0.50899
      1189 67188.44529     2.97460    60.49148    60.56504     0.47778
      1190 67242.19604     2.97698    64.49503    64.98431     0.45113
      1191 67295.98980     2.97936    67.33041    72.59419     0.43659
      1192 67349.82659     2.98174    71.78095    81.35586     0.42139
      1193 67403.70645     2.98413    75.27956    86.23684     0.39565
      1194 67457.62942     2.98651    71.83933    84.02975     0.41590
      1195 67511.59552     2.98890    67.13682    77.10998     0.43656
      1196 67565.60480     2.99129    64.67182    69.75673     0.44360
      1197 67619.65728     2.99369    60.62384    64.40266     0.47527
      1198 67673.75301     2.99608    57.03012    61.26750     0.49405
      1199 67727.89201     2.99848    60.36740    59.63901     0.46688
      1200 67782.07432     3.00087    60.33450    58.83208     0.46629
      1201 67836.29998     3.00327    60.10642    58.43488     0.46747
      1202 67890.56902     3.00568    58.63029    58.24203     0.47752
      1203 67944.88148     3.00808    59.30883    58.15653     0.46362
      1204 67999.23738     3.01049    55.33374    58.13086     0.50311
      1205 68053.63677     3.01289    57.84177    58.14092     0.47642
      1206 68108.07968     3.01530    60.15193    58.17519     0.45120
      1207 68162.56615     3.01772    59.75480    58.22913     0.46218
      1208 68217.09620     3.02013    59.41169    58.30218     0.46427
      1209 68271.66987     3.02255    57.31618    58.39723     0.48552
      1210 68326.28721     3.02496    56.93138    58.52527     0.48168
      1211 68380.94824     3.02738    59.08455    58.72280     0.45983
      1212 68435.65300     3.02980    59.27992    59.08570     0.46693
      1213 68490.40152     3.03223    59.78499    59.77842     0.45886
      1214 68545.19384     3.03465    61.94067    60.92249     0.44342
      1215 68600.03000     3.03708    61.59783    62.34670     0.44002
      1216 68654.91002     3.03951    63.99882    63.45580     0.43548
      1217 68709.83395     3.04194    64.65562    63.71778     0.42115
      1218 68764.80182     3.04437    66.62938    63.31562     0.41080
      1219 68819.81366     3.04681    62.64508    62.84828     0.43579
      1220 68874.86951     3.04925    62.58416    62.77957     0.43000
      1221 68929.96941     3.05168    61.16215    63.30870     0.44181
      1222 68985.11338     3.05413    61.95761    64.88784     0.43168
      1223 69040.30147     3.05657    63.84025    68.15002     0.41933
      1224 69095.53371     3.05901    71.92659    75.70554     0.37586
      1225 69150.81014     3.06146    90.51782    95.39973     0.31259
      1226 69206.13079     3.06391   133.70597   140.02957     0.22253
      1227 69261.49569     3.06636   216.84637   217.44383     0.14250
      1228 69316.90489     3.06881   310.08537   310.45132     0.10180
      1229 69372.35841     3.07127   369.52654   369.38995     0.08537
      1230 69427.85630     3.07372   345.86596   355.01355     0.09101
      1231 69483.39858     3.07618   280.74044   284.89569     0.10988
      1232 69538.98530     3.07864   207.98376   203.89346     0.14517
      1233 69594.61649     3.08110   144.87703   141.73336     0.20334
      1234 69650.29218     3.08357   108.86982   104.02543     0.26221
      1235 69706.01242     3.08604    91.52211    84.03567     0.30032
      1236 69761.77723     3.08850    79.13692    73.99843     0.33791
      1237 69817.58665     3.09097    72.66285    68.94600     0.36243
      1238 69873.44072     3.09345    70.03408    66.34506     0.37513
      1239 69929.33947     3.09592    64.91734    64.99120     0.40239
      1240 69985.28294     3.09840    64.70770    64.29777     0.39346
      1241 70041.27117     3.10087    62.53991    63.97447     0.41690
      1242 70097.30419     3.10336    62.71756    63.88421     0.40653
      1243 70153.38203     3.10584    64.80785    63.96889     0.39848
      1244 70209.50474     3.10832    64.66041    64.20914     0.39758
      1245 70265.67234     3.11081    62.55564    64.60593     0.40968
      1246 70321.88488     3.11330    63.04295    65.17461     0.41340
      1247 70378.14239     3.11579    65.27069    65.94523     0.38734
      1248 70434.44490     3.11828    64.59867    66.96626     0.39304
      1249 70490.79246     3.12077    66.28702    68.31223     0.38560
      1250 70547.18509     3.12327    67.05166    70.09765     0.37581
      1251 70603.62284     3.12577    67.60062    72.50746     0.38052
      1252 70660.10574     3.12827    71.52087    75.89894     0.35308
      1253 70716.63382     3.13077    75.44730    81.25715     0.33843
      1254 70773.20713     3.13327    79.59960    92.00529     0.33066
      1255 70829.82569     3.13578   102.61335   119.04686     0.26227
      1256 70886.48955     3.13829   168.53236   188.26962     0.16817
      1257 70943.19875     3.14080   318.16779   338.04410     0.09254
      1258 70999.95330     3.14331   602.08831   585.73428     0.04981
      1259 71056.75327     3.14582   936.80114   869.95577     0.03209
      1260 71113.59867     3.14834  1098.20044  1039.05101     0.02736
      1261 71170.48955     3.15086  1011.33984   983.94823     0.02965
      1262 71227.42594     3.15338   748.12091   762.97038     0.03969
      1263 71284.40788     3.15590   482.71419   510.77697     0.06122
      1264 71341.43541     3.15842   297.97726   316.57352     0.09737
      1265 71398.50856     3.16095   193.39018   197.86157     0.14744
      1266 71455.62736     3.16348   139.82173   134.51150     0.19586
      1267 71512.79186     3.16601   112.39335   102.56383     0.23631
      1268 71570.00210     3.16854    96.38613    86.28197     0.26900
      1269 71627.25810     3.17108    81.22460    77.57587     0.31575
      1270 71684.55991     3.17361    79.33918    72.61478     0.32239
      1271 71741.90755     3.17615    72.59258    69.56112     0.34374
      1272 71799.30108     3.17869    72.00768    67.51119     0.34330
      1273 71856.74052     3.18123    67.66339    66.02280     0.37173
      1274 71914.22591     3.18378    68.55657    65.05610     0.35825
      1275 71971.75729     3.18632    66.41470    64.33038     0.36401
      1276 72029.33470     3.18887    66.64534    63.68772     0.36335
      1277 72086.95817     3.19142    67.33903    63.14100     0.36367
      1278 72144.62773     3.19398    63.67126    62.68321     0.37981
      1279 72202.34344     3.19653    62.25938    62.30216     0.38204
      1280 72260.10531     3.19909    62.87278    61.98571     0.37736
      1281 72317.91340     3.20165    61.73972    61.72342     0.38079
      1282 72375.76773     3.20421    61.66064    61.50682     0.38624
      1283 72433.66834     3.20677    62.54812    61.32912     0.37655
      1284 72491.61527     3.20933    62.03651    61.18517     0.38327
      1285 72549.60857     3.21190    60.48924    61.07097     0.39844
      1286 72607.64825     3.21447    58.73603    60.98350     0.40173
      1287 72665.73437     3.21704    57.07837    60.92054     0.41397
      1288 72723.86696     3.21961    57.80134    60.88057     0.40192
      1289 72782.04605     3.22219    60.42877    60.86278     0.38704
      1290 72840.27169     3.22477    63.16113    61.07288     0.36522
      1291 72898.54391     3.22735    60.72427    61.29460     0.37649
      1292 72956.86274     3.22993    60.09726    61.44128     0.38237
      1293 73015.22823     3.23251    57.71584    61.57448     0.40632
      1294 73073.64042     3.23510    59.62265    61.72146     0.38418
      1295 73132.09933     3.23768    58.36794    61.89622     0.38912
      1296 73190.60501     3.24027    59.90688    62.03683     0.38593
      1297 73249.15749     3.24286    58.65057    61.86138     0.39001
      1298 73307.75682     3.24546    61.25544    61.97890     0.36641
      1299 73366.40302     3.24805    60.78728    62.31140     0.37238
      1300 73425.09615     3.25065    59.11560    62.78976     0.37889
      1301 73483.83622     3.25325    62.37618    63.40473     0.36765
      1302 73542.62329     3.25585    63.15151    64.17920     0.35675
      1303 73601.45739     3.25846    63.44380    65.16179     0.35555
      1304 73660.33856     3.26106    65.41165    66.43458     0.35016
      1305 73719.26683     3.26367    67.41229    68.15217     0.33478
      1306 73778.24224     3.26628    68.43676    70.71272     0.34272
      1307 73837.26483     3.26889    75.42467    75.42953     0.30511
      1308 73896.33465     3.27151    93.68412    86.44445     0.25341
      1309 73955.45171     3.27413   119.40389   113.94347     0.20502
      1310 74014.61607     3.27674   189.73456   174.77828     0.13419
      1311 74073.82777     3.27937   286.75048   282.00249     0.09178
      1312 74133.08683     3.28199   416.18766   421.49317     0.06360
      1313 74192.39330     3.28461   506.41517   535.33339     0.05232
      1314 74251.74721     3.28724   524.81269   554.95847     0.05009
      1315 74311.14861     3.28987   442.24999   474.54399     0.05922
      1316 74370.59753     3.29250   336.83601   349.68674     0.07686
      1317 74430.09401     3.29513   236.04641   236.69592     0.10942
      1318 74489.63808     3.29777   172.48475   159.94204     0.14338
      1319 74549.22979     3.30041   133.37235   116.85328     0.18113
      1320 74608.86918     3.30305   111.58948    95.58320     0.20859
      1321 74668.55627     3.30569    94.47009    86.21301     0.24544
      1322 74728.29112     3.30833    95.60758    83.42594     0.23805
      1323 74788.07375     3.31098    93.03777    86.22926     0.24563
      1324 74847.90421     3.31363   111.44296    99.07960     0.20976
      1325 74907.78253     3.31628   153.05996   134.81313     0.15473
      1326 74967.70876     3.31893   234.17519   213.24154     0.10419
      1327 75027.68293     3.32158   365.45003   345.11770     0.06819
      1328 75087.70507     3.32424   499.34722   503.45648     0.05032
      1329 75147.77524     3.32690   588.03992   611.80054     0.04279
      1330 75207.89346     3.32956   562.47056   601.44445     0.04471
      1331 75268.05977     3.33222   456.78159   488.84559     0.05474
      1332 75328.27422     3.33489   331.38164   344.91363     0.07441
      1333 75388.53684     3.33756   237.69489   226.12601     0.10067
      1334 75448.84767     3.34023   171.57637   150.08193     0.13485
      1335 75509.20675     3.34290   124.50980   108.62893     0.18395
      1336 75569.61411     3.34557   104.75619    87.80925     0.21015
      1337 75630.06980     3.34825    94.50050    77.38177     0.22319
      1338 75690.57386     3.35092    84.47239    71.88613     0.24782
      1339 75751.12632     3.35360    74.14989    68.76003     0.28508
      1340 75811.72722     3.35629    72.69671    66.81815     0.27991
      1341 75872.37660     3.35897    69.51165    65.49956     0.29485
      1342 75933.07450     3.36166    68.71970    64.53354     0.28770
      1343 75993.82096     3.36435    67.05665    63.78724     0.29285
      1344 76054.61602     3.36704    61.69614    63.19166     0.32926
      1345 76115.45971     3.36973    62.79995    62.70669     0.31785
      1346 76176.35208     3.37243    65.29400    62.30610     0.30251
      1347 76237.29316     3.37512    64.57015    61.97137     0.30852
      1348 76298.28300     3.37782    63.13506    61.68891     0.32103
      1349 76359.32162     3.38052    63.80937    61.44851     0.31448
      1350 76420.40908     3.38323    59.21660    61.24235     0.33928
      1351 76481.54541     3.38593    64.21670    61.00887     0.30478
      1352 76542.73064     3.38864    63.18205    60.63917     0.30184
      1353 76603.96483     3.39135    58.51698    60.41666     0.33161
      1354 76665.24800     3.39406    64.73917    60.27704     0.29677
      1355 76726.58020     3.39678    61.04861    60.17630     0.32005
      1356 76787.96146     3.39950    60.92057    60.09641     0.31765
      1357 76849.39183     3.40221    60.44203    60.02962     0.31158
      1358 76910.87134     3.40494    60.85225    59.97225     0.31557
      1359 76972.40004     3.40766    58.89990    59.92227     0.31927
      1360 77033.97796     3.41038    59.52185    59.87869     0.31601
      1361 77095.60514     3.41311    57.46929    59.84035     0.33669
      1362 77157.28163     3.41584    61.49812    59.80660     0.30989
      1363 77219.00745     3.41857    58.90676    59.77688     0.31693
      1364 77280.78266     3.42131    61.22487    59.75076     0.30341
      1365 77342.60729     3.42404    57.28903    59.84825     0.32553
      1366 77404.48137     3.42678    59.32504    60.07082     0.32009
      1367 77466.40496     3.42952    59.28707    60.02491     0.31098
      1368 77528.37808     3.43227    60.78863    59.90314     0.30264
      1369 77590.40078     3.43501    62.96680    59.88431     0.28956
      1370 77652.47310     3.43776    59.66368    59.90691     0.31304
      1371 77714.59508     3.44051    61.28103    59.94748     0.29881
      1372 77776.76676     3.44326    60.42226    59.99727     0.30449
      1373 77838.98817     3.44601    62.45268    60.05340     0.29802
      1374 77901.25936     3.44877    66.63523    60.11592     0.27270
      1375 77963.58037     3.45153    64.75230    60.18875     0.28140
      1376 78025.95123     3.45429    62.54872    60.27797     0.28975
      1377 78088.37199     3.45705    61.38092    60.39234     0.29404
      1378 78150.84269     3.45982    60.19811    60.53526     0.30064
      1379 78213.36337     3.46258    61.32774    60.69416     0.29036
      1380 78275.93406     3.46535    58.27466    60.83821     0.30240
      1381 78338.55480     3.46813    63.37542    60.94142     0.27796
      1382 78401.22565     3.47090    60.76571    61.01193     0.29121
      1383 78463.94663     3.47368    59.50991    61.08060     0.28742
      1384 78526.71779     3.47645    60.20599    61.17424     0.28914
      1385 78589.53916     3.47923    61.24434    61.30489     0.28723
      1386 78652.41079     3.48202    62.98582    61.47371     0.27870
      1387 78715.33272     3.48480    59.31432    61.67916     0.29521
      1388 78778.30499     3.48759    62.45602    61.92196     0.28022
      1389 78841.32763     3.49038    62.68777    62.20641     0.27387
      1390 78904.40069     3.49317    61.23872    62.64126     0.28710
      1391 78967.52421     3.49596    63.45234    63.26757     0.27362
      1392 79030.69823     3.49876    61.18522    63.84205     0.28259
      1393 79093.92279     3.50156    65.46775    64.46609     0.25698
      1394 79157.19793     3.50436    64.87379    65.19957     0.26033
      1395 79220.52369     3.50716    68.21514    66.09547     0.25017
      1396 79283.90011     3.50997    66.43752    67.21790     0.26053
      1397 79347.32723     3.51277    67.69687    68.66078     0.25224
      1398 79410.80509     3.51558    73.89965    70.59512     0.22862
      1399 79474.33373     3.51839    73.82352    73.45003     0.23396
      1400 79537.91320     3.52121    81.76141    78.55374     0.21263
      1401 79601.54353     3.52402    94.44078    89.86073     0.18362
      1402 79665.22476     3.52684   120.72526   116.90341     0.15134
      1403 79728.95694     3.52966   188.45568   176.20251     0.09817
      1404 79792.74011     3.53249   302.63632   284.28266     0.06341
      1405 79856.57430     3.53531   462.85044   438.33985     0.04179
      1406 79920.45956     3.53814   610.38770   595.16660     0.03188
      1407 79984.39593     3.54097   663.81157   677.92643     0.02930
      1408 80048.38345     3.54380   608.15977   639.47714     0.03203
      1409 80112.42215     3.54664   495.34306   510.80706     0.03878
      1410 80176.51209     3.54947   362.70613   360.00635     0.05200
      1411 80240.65330     3.55231   247.71213   237.22261     0.07519
      1412 80304.84582     3.55515   180.37637   157.80106     0.10023
      1413 80369.08970     3.55800   136.70111   113.97187     0.12635
      1414 80433.38497     3.56084   113.02792    91.99098     0.15019
      1415 80497.73168     3.56369    99.73124    81.30354     0.16748
      1416 80562.12986     3.56654    91.38367    76.00649     0.17652
      1417 80626.57957     3.56939    80.14468    73.25577     0.19629
      1418 80691.08083     3.57225    75.74737    71.77919     0.20980
      1419 80755.63370     3.57510    76.14523    71.02872     0.20571
      1420 80820.23820     3.57796    71.22390    70.78258     0.21771
      1421 80884.89439     3.58082    69.34817    70.97356     0.22656
      1422 80949.60231     3.58369    75.36212    71.62797     0.20453
      1423 81014.36199     3.58655    76.82604    72.89621     0.19717
      1424 81079.17348     3.58942    79.37778    75.28695     0.19399
      1425 81144.03682     3.59229    84.03567    80.47859     0.18487
      1426 81208.95205     3.59517    97.31504    93.24048     0.15934
      1427 81273.91921     3.59804   130.77368   123.93564     0.12788
      1428 81338.93835     3.60092   204.32977   187.71230     0.08260
      1429 81404.00950     3.60380   316.72613   294.24612     0.05495
      1430 81469.13271     3.60668   458.42711   428.76184     0.03787
      1431 81534.30801     3.60957   548.16459   539.91748     0.03189
      1432 81599.53546     3.61245   562.40252   565.49924     0.03077
      1433 81664.81509     3.61534   492.89988   494.34503     0.03487
      1434 81730.14694     3.61823   370.60864   373.08507     0.04577
      1435 81795.53106     3.62113   262.91805   255.76694     0.06328
      1436 81860.96748     3.62402   183.17616   170.84410     0.08891
      1437 81926.45625     3.62692   139.38960   120.28583     0.11165
      1438 81991.99742     3.62982   105.64587    93.79062     0.14075
      1439 82057.59102     3.63273    94.40999    80.71337     0.15708
      1440 82123.23709     3.63563    81.93790    74.21501     0.17537
      1441 82188.93568     3.63854    71.85505    70.78017     0.19981
      1442 82254.68683     3.64145    71.40867    68.78586     0.19811
      1443 82320.49058     3.64436    69.79927    67.51153     0.19843
      1444 82386.34697     3.64728    67.06507    66.64022     0.19925
      1445 82452.25605     3.65019    66.12273    66.03213     0.20156
      1446 82518.21785     3.65311    64.65950    65.62550     0.21082
      1447 82584.23243     3.65604    66.54344    65.16241     0.20545
      1448 82650.29981     3.65896    71.17892    64.96261     0.18898
      1449 82716.42005     3.66189    70.54066    65.25938     0.19033
      1450 82782.59319     3.66481    67.94498    66.44426     0.20274
      1451 82848.81926     3.66775    70.38472    69.65893     0.19353
      1452 82915.09832     3.67068    78.44557    76.98609     0.17531
      1453 82981.43040     3.67361    97.81137    90.74351     0.14514
      1454 83047.81554     3.67655   127.17011   111.27122     0.11393
      1455 83114.25379     3.67949   153.92904   134.13308     0.09446
      1456 83180.74520     3.68244   161.79691   149.67681     0.09055
      1457 83247.28979     3.68538   166.49622   149.32982     0.08677
      1458 83313.88763     3.68833   141.29251   134.13038     0.10247
      1459 83380.53874     3.69128   118.31763   112.60422     0.11888
      1460 83447.24317     3.69423    93.48116    92.96358     0.14677
      1461 83514.00096     3.69718    83.30558    79.07603     0.15884
      1462 83580.81216     3.70014    73.34326    70.86881     0.17694
      1463 83647.67681     3.70310    71.59291    66.56821     0.17799
      1464 83714.59495     3.70606    65.01954    64.44136     0.18710
      1465 83781.56663     3.70903    67.06371    63.38263     0.18287
      1466 83848.59188     3.71199    60.71957    62.82534     0.19646
      1467 83915.67076     3.71496    65.90414    62.51796     0.18951
      1468 83982.80329     3.71793    62.34992    62.35896     0.19999
      1469 84049.98953     3.72091    61.17509    62.33548     0.19946
      1470 84117.22953     3.72388    67.99857    62.54128     0.18053
      1471 84184.52331     3.72686    65.10090    63.12795     0.18916
      1472 84251.87093     3.72984    64.35800    64.48016     0.18804
      1473 84319.27243     3.73282    68.70269    67.25550     0.17391
      1474 84386.72784     3.73581    70.98198    71.26996     0.17306
      1475 84454.23723     3.73880    72.86636    75.47889     0.16875
      1476 84521.80062     3.74179    70.57606    78.01155     0.17257
      1477 84589.41806     3.74478    73.77589    77.48691     0.16435
      1478 84657.08959     3.74777    67.98369    74.39439     0.17553
      1479 84724.81526     3.75077    68.64597    70.42403     0.17132
      1480 84792.59511     3.75377    63.70771    67.11584     0.18413
      1481 84860.42919     3.75677    62.54820    65.26282     0.18697
      1482 84928.31753     3.75978    68.30124    64.96668     0.16813
      1483 84996.26019     3.76279    68.33874    65.86427     0.16614
      1484 85064.25720     3.76580    71.52348    67.23450     0.15815
      1485 85132.30860     3.76881    63.11956    68.11622     0.18454
      1486 85200.41445     3.77182    68.46949    67.82487     0.16666
      1487 85268.57478     3.77484    62.03112    66.49093     0.17948
      1488 85336.78964     3.77786    64.29254    64.76781     0.17470
      1489 85405.05907     3.78088    59.18481    63.25178     0.18642
      1490 85473.38312     3.78390    62.26336    62.20164     0.17581
      1491 85541.76183     3.78693    63.31256    61.58599     0.17029
      1492 85610.19523     3.78996    63.31131    61.26451     0.17319
      1493 85678.68339     3.79299    58.72151    61.10777     0.18680
      1494 85747.22634     3.79602    60.15990    61.03319     0.17798
      1495 85815.82412     3.79906    61.03467    60.99843     0.17662
      1496 85884.47678     3.80210    64.25472    60.98436     0.16372
      1497 85953.18436     3.80514    64.20948    60.98159     0.16359
      1498 86021.94691     3.80818    58.03486    60.94652     0.17842
      1499 86090.76446     3.81123    64.65255    60.94272     0.16361
      1500 86159.63708     3.81427    59.06202    60.96303     0.17954
      1501 86228.56479     3.81732    59.92118    60.99865     0.17609
      1502 86297.54764     3.82038    62.18876    61.04883     0.16984
      1503 86366.58568     3.82343    60.87072    61.11871     0.16962
      1504 86435.67894     3.82649    60.88974    61.22553     0.16841
      1505 86504.82749     3.82955    62.14281    61.42153     0.16607
      1506 86574.03135     3.83261    65.70272    61.84520     0.15173
      1507 86643.29057     3.83568    59.55851    62.79129     0.17175
      1508 86712.60521     3.83875    61.98855    64.71596     0.16514
      1509 86781.97529     3.84182    67.23268    68.02926     0.15794
      1510 86851.40087     3.84489    69.43889    72.62802     0.14908
      1511 86920.88199     3.84796    77.06131    77.41782     0.13958
      1512 86990.41870     3.85104    82.84949    80.38838     0.12587
      1513 87060.01103     3.85412    76.13401    79.98018     0.13920
      1514 87129.65904     3.85720    76.31727    76.59972     0.13674
      1515 87199.36277     3.86029    66.97106    72.01176     0.15599
      1516 87269.12226     3.86338    68.54386    67.85079     0.14901
      1517 87338.93756     3.86646    63.60122    64.89339     0.15792
      1518 87408.80871     3.86956    65.36531    63.13272     0.15060
      1519 87478.73575     3.87265    58.37552    62.21518     0.16673
      1520 87548.71874     3.87575    59.65069    61.78447     0.16183
      1521 87618.75772     3.87885    62.79740    61.59756     0.15591
      1522 87688.85272     3.88195    63.89729    61.52863     0.14996
      1523 87759.00381     3.88506    62.27395    61.52224     0.15378
      1524 87829.21101     3.88816    60.70163    61.55882     0.16244
      1525 87899.47438     3.89127    65.74757    61.64021     0.14660
      1526 87969.79396     3.89438    62.90994    61.79712     0.15711
      1527 88040.16979     3.89750    61.32059    62.12853     0.15675
      1528 88110.60193     3.90062    66.79999    62.89839     0.14481
      1529 88181.09041     3.90374    64.12761    64.63517     0.15597
      1530 88251.63528     3.90686    68.59357    68.08143     0.14469
      1531 88322.23659     3.90998    73.27793    73.76951     0.13494
      1532 88392.89438     3.91311    81.97834    81.22366     0.12769
      1533 88463.60869     3.91624    88.38691    88.30880     0.11716
      1534 88534.37958     3.91937    94.38531    91.76771     0.11023
      1535 88605.20709     3.92250    91.04081    89.77921     0.11624
      1536 88676.09125     3.92564    78.34784    83.71294     0.13119
      1537 88747.03212     3.92878    75.48179    76.48626     0.13681
      1538 88818.02975     3.93192    70.65475    70.37712     0.14234
      1539 88889.08417     3.93507    63.72487    66.24310     0.15592
      1540 88960.19544     3.93822    62.20682    63.86629     0.15677
      1541 89031.36360     3.94136    59.41687    62.64313     0.16272
      1542 89102.58869     3.94452    59.70560    62.04483     0.16459
      1543 89173.87076     3.94767    60.32789    61.74663     0.16148
      1544 89245.20986     3.95083    57.89836    61.58517     0.16892
      1545 89316.60602     3.95399    62.47816    61.48717     0.16102
      1546 89388.05931     3.95715    64.06370    61.42124     0.15892
      1547 89459.56976     3.96032    61.35552    61.37372     0.15730
      1548 89531.13741     3.96348    65.73869    61.33815     0.14619
      1549 89602.76232     3.96665    61.48701    61.31110     0.16372
      1550 89674.44453     3.96982    60.89085    61.29041     0.16211
      1551 89746.18409     3.97300    61.73349    61.27465     0.16158
      1552 89817.98103     3.97618    59.45561    61.26274     0.16418
      1553 89889.83542     3.97936    59.42799    61.25392     0.16299
      1554 89961.74729     3.98254    58.56771    61.24757     0.16381
      1555 90033.71669     3.98572    54.26970    61.23742     0.18050
      1556 90105.74366     3.98891    63.90958    61.22742     0.15261
      1557 90177.82825     3.99210    62.28441    61.22432     0.15139
      1558 90249.97052     3.99529    61.39665    61.22408     0.15355
      1559 90322.17049     3.99849    62.88602    61.22535     0.14942
      1560 90394.42823     4.00169    65.91394    61.22760     0.14607
      1561 90466.74377     4.00489    60.61930    61.23059     0.16163
      1562 90539.11717     4.00809    61.45779    61.23417     0.15802
      1563 90611.54846     4.01130    60.87441    61.23825     0.15858
      1564 90684.03770     4.01450    61.69499    61.24275     0.14912
      1565 90756.58493     4.01771    54.91779    61.24762     0.17247
      1566 90829.19020     4.02093    59.61017    61.25281     0.15864
      1567 90901.85355     4.02414    62.08201    61.25828     0.14651
      1568 90974.57503     4.02736    60.24667    61.26399     0.15492
      1569 91047.35469     4.03058    58.71777    61.26992     0.15516
      1570 91120.19258     4.03381    64.03471    61.27603     0.14897
      1571 91193.08873     4.03703    64.54924    61.28232     0.14282
      1572 91266.04320     4.04026    65.30113    61.28875     0.14186
      1573 91339.05604     4.04349    62.35438    61.29531     0.14446
      1574 91412.12728     4.04673    58.67095    61.30198     0.16069
      1575 91485.25698     4.04996    63.91829    61.30876     0.13930
      1576 91558.44519     4.05320    61.45225    61.31442     0.14113
      1577 91631.69194     4.05644    60.91828    61.30638     0.14391
      1578 91704.99730     4.05969    62.36744    61.30717     0.14532
      1579 91778.36130     4.06293    60.76400    61.31295     0.14974
      1580 91851.78398     4.06618    63.61016    61.32037     0.13928
      1581 91925.26541     4.06943    61.70093    61.32831     0.14543
      1582 91998.80562     4.07269    62.45459    61.33641     0.14109
      1583 92072.40467     4.07595    58.53920    61.34455     0.14981
      1584 92146.06259     4.07921    61.90064    61.35269     0.14484
      1585 92219.77944     4.08247    63.45726    61.36081     0.13816
      1586 92293.55527     4.08573    67.61928    61.36892     0.12978
      1587 92367.39011     4.08900    60.64452    61.37700     0.14705
      1588 92441.28402     4.09227    57.42384    61.38506     0.15363
      1589 92515.23705     4.09554    63.42596    61.39309     0.14022
      1590 92589.24924     4.09882    57.31544    61.40111     0.14795
      1591 92663.32064     4.10210    62.62003    61.40911     0.14310
      1592 92737.45129     4.10538    59.90818    61.41708     0.14523
      1593 92811.64126     4.10866    59.65117    61.42503     0.14763
      1594 92885.89057     4.11195    69.62237    61.43297     0.12563
      1595 92960.19928     4.11523    57.84004    61.44088     0.14773
      1596 93034.56744     4.11853    61.52415    61.72790     0.14102
      1597 93108.99509     4.12182    63.13249    62.20701     0.13464
      1598 93183.48229     4.12512    63.63123    62.46223     0.13670
      1599 93258.02908     4.12841    63.63216    62.58190     0.13003
      1600 93332.63550     4.13172    58.82966    62.66054     0.14362
      1601 93407.30161     4.13502    64.74720    62.72856     0.13188
      1602 93482.02745     4.13833    67.00790    62.79589     0.12433
      1603 93556.81307     4.14164    62.37413    62.86585     0.13346
      1604 93631.65852     4.14495    64.05139    62.93991     0.13005
      1605 93706.56385     4.14826    70.63298    63.01913     0.11325
      1606 93781.52910     4.15158    63.62653    63.10408     0.12767
      1607 93856.55432     4.15490    61.90840    63.19520     0.13523
      1608 93931.63957     4.15822    66.48728    63.29286     0.12677
      1609 94006.78488     4.16155    63.59638    63.39753     0.12734
      1610 94081.99031     4.16488    68.30854    63.50999     0.11651
      1611 94157.25590     4.16821    66.23079    63.63144     0.12203
      1612 94232.58170     4.17154    64.72672    63.76330     0.12367
      1613 94307.96777     4.17488    62.14481    63.90707     0.12866
      1614 94383.41414     4.17822    63.17541    64.06436     0.12819
      1615 94458.92087     4.18156    62.91755    64.23692     0.12632
      1616 94534.48801     4.18490    60.99327    64.42680     0.12994
      1617 94610.11560     4.18825    62.67014    64.63643     0.12872
      1618 94685.80369     4.19160    72.10412    64.86869     0.10793
      1619 94761.55234     4.19495    63.13053    65.12708     0.12522
      1620 94837.36158     4.19831    63.61050    65.41580     0.12550
      1621 94913.23147     4.20166    66.88083    65.73991     0.11958
      1622 94989.16205     4.20502    70.02922    66.10561     0.11030
      1623 95065.15338     4.20839    68.52328    66.52048     0.11200
      1624 95141.20551     4.21175    60.91692    66.99393     0.13040
      1625 95217.31847     4.21512    62.46229    67.53769     0.13036
      1626 95293.49232     4.21849    69.30185    68.16656     0.11358
      1627 95369.72712     4.22186    65.73285    68.89945     0.12260
      1628 95446.02290     4.22524    71.48258    70.70175     0.10844
      1629 95522.37972     4.22862    67.41519    73.23328     0.11470
      1630 95598.79762     4.23200    71.39963    75.37625     0.11168
      1631 95675.27666     4.23539    71.93061    77.38330     0.11111
      1632 95751.81688     4.23877    66.60732    79.64595     0.12101
      1633 95828.41834     4.24216    76.21172    82.28173     0.10309
      1634 95905.08107     4.24555    78.66484    85.50976     0.09855
      1635 95981.80513     4.24895    81.42617    89.90276     0.09423
      1636 96058.59058     4.25235    83.78131    96.80806     0.09344
      1637 96135.43745     4.25575    94.04839   109.70519     0.08369
      1638 96212.34580     4.25915   117.25953   136.57683     0.07073
      1639 96289.31568     4.26256   167.87637   192.37288     0.05038
      1640 96366.34713     4.26597   276.75885   298.14751     0.03274
      1641 96443.44021     4.26938   451.29837   472.06000     0.02011
      1642 96520.59496     4.27279   744.50422   711.49217     0.01229
      1643 96597.81144     4.27621  1020.10124   974.55480     0.00907
      1644 96675.08969     4.27963  1201.24006  1176.75749     0.00770
      1645 96752.42976     4.28305  1221.84401  1228.52069     0.00750
      1646 96829.83170     4.28648  1065.84606  1108.43407     0.00857
      1647 96907.29557     4.28991   854.57463   878.61851     0.01054
      1648 96984.82140     4.29334   590.66636   626.88238     0.01529
      1649 97062.40926     4.29677   403.69474   416.52782     0.02182
      1650 97140.05919     4.30021   272.97151   271.33537     0.03185
      1651 97217.77123     4.30364   199.24658   185.12869     0.04264
      1652 97295.54545     4.30709   153.07801   139.54574     0.05380
      1653 97373.38189     4.31053   126.40128   117.18918     0.06290
      1654 97451.28059     4.31398   118.84113   106.50977     0.06602
      1655 97529.24162     4.31743   112.62099   101.32984     0.06913
      1656 97607.26501     4.32088    98.13360    98.79666     0.07691
      1657 97685.35082     4.32434    91.53013    97.70987     0.08366
      1658 97763.49910     4.32779    97.27794    97.58628     0.07665
      1659 97841.70990     4.33126    97.50321    98.23549     0.07746
      1660 97919.98327     4.33472    96.97552    99.59828     0.07904
      1661 97998.31926     4.33819    92.03101   101.68410     0.08120
      1662 98076.71791     4.34165    87.87512   104.55428     0.08696
      1663 98155.17929     4.34513    89.18107   108.32240     0.08386
      1664 98233.70343     4.34860    96.90497   113.16550     0.07487
      1665 98312.29039     4.35208    92.73907   119.35052     0.08142
      1666 98390.94023     4.35556   103.85530   127.30273     0.07227
      1667 98469.65298     4.35904   108.47507   137.81759     0.07076
      1668 98548.42870     4.36253   121.78134   152.73155     0.06398
      1669 98627.26744     4.36602   141.26134   176.81165     0.05839
      1670 98706.16926     4.36951   187.59214   222.09489     0.04321
      1671 98785.13419     4.37300   262.27667   315.29556     0.03191
      1672 98864.16230     4.37650   452.91787   505.19029     0.01877
      1673 98943.25363     4.38000   782.18147   859.91196     0.01116
      1674 99022.40823     4.38350  1398.52104  1440.50620     0.00622
      1675 99101.62616     4.38701  2260.74458  2248.37993     0.00389
      1676 99180.90746     4.39052  3227.80222  3168.74931     0.00271
      1677 99260.25219     4.39403  4003.92939  3952.55493     0.00216
      1678 99339.66039     4.39754  4246.72167  4307.82248     0.00204
      1679 99419.13212     4.40106  4000.52993  4111.19465     0.00217
      1680 99498.66742     4.40458  3343.72934  3492.25014     0.00258
      1681 99578.26636     4.40810  2636.78865  2688.60747     0.00324
      1682 99657.92897     4.41163  1882.51370  1905.45237     0.00455
      1683 99737.65531     4.41515  1316.94826  1266.05567     0.00639
      1684 99817.44544     4.41868   890.07830   808.60334     0.00947
      1685 99897.29939     4.42222   608.55219   513.09692     0.01363
      1686 99977.21723     4.42575   419.06018   336.70841     0.01955
      1687 100057.19901     4.42929   308.03076   237.21961     0.02615
      1688 100137.24477     4.43284   243.15774   182.56579     0.03222
      1689 100217.35456     4.43638   183.44699   152.01105     0.04196
      1690 100297.52844     4.43993   153.91967   133.73934     0.04907
      1691 100377.76647     4.44348   140.62357   121.19676     0.05112
      1692 100458.06868     4.44703   126.42848   112.13662     0.05687
      1693 100538.43514     4.45059   106.65455   105.34020     0.06758
      1694 100618.86588     4.45415   101.84975    99.94152     0.06902
      1695 100699.36098     4.45771    86.87577    95.52284     0.08028
      1696 100779.92047     4.46127    89.67282    91.84197     0.07694
      1697 100860.54440     4.46484    87.45824    88.73837     0.07815
      1698 100941.23284     4.46841    84.40778    86.09627     0.08106
      1699 101021.98582     4.47199    83.21015    83.82827     0.08166
      1700 101102.80341     4.47556    86.38896    81.86718     0.07685
      1701 101183.68565     4.47914    80.71902    80.16096     0.08253
      1702 101264.63260     4.48272    78.54933    78.66759     0.08222
      1703 101345.64431     4.48631    81.65335    77.35252     0.07818
      1704 101426.72082     4.48990    74.21367    76.18862     0.08510
      1705 101507.86220     4.49349    64.78975    75.15370     0.10047
      1706 101589.06849     4.49708    66.35378    74.22952     0.09771
      1707 101670.33975     4.50068    73.62208    73.40092     0.08531
      1708 101751.67602     4.50428    66.92808    72.65526     0.09732
      1709 101833.07736     4.50788    64.89680    71.98200     0.09616
      1710 101914.54382     4.51148    69.09133    71.37210     0.08993
      1711 101996.07546     4.51509    68.20088    70.81788     0.08929
      1712 102077.67232     4.51870    64.07989    70.31283     0.09624
      1713 102159.33445     4.52231    70.66797    69.85136     0.09199
      1714 102241.06192     4.52593    61.91502    69.42867     0.09898
      1715 102322.85477     4.52955    67.38822    69.04056     0.09283
      1716 102404.71305     4.53317    61.93182    68.68342     0.09997
      1717 102486.63683     4.53680    64.67880    68.35409     0.09499
      1718 102568.62613     4.54043    71.08627    68.04979     0.08788
      1719 102650.68104     4.54406    65.41515    67.76809     0.09456
      1720 102732.80158     4.54769    67.05880    67.50705     0.09259
      1721 102814.98782     4.55133    66.55416    67.26458     0.09110
      1722 102897.23981     4.55497    63.05316    67.03893     0.09491
      1723 102979.55760     4.55861    64.02397    66.82863     0.09351
      1724 103061.94125     4.56226    63.14111    66.62594     0.09388
      1725 103144.39080     4.56590    64.08615    65.04669     0.09315
      1726 103226.90632     4.56955    60.23695    63.42685     0.09482
      1727 103309.48784     4.57321    58.66470    62.98304     0.10188
      1728 103392.13543     4.57687    60.82171    62.68012     0.09791
      1729 103474.84914     4.58053    58.23172    62.39727     0.10087
      1730 103557.62902     4.58419    64.06608    62.32591     0.09555
      1731 103640.47512     4.58785    62.61925    62.30942     0.09371
      1732 103723.38750     4.59152    64.63522    62.30879     0.09077
      1733 103806.36621     4.59520    63.53361    62.31198     0.09440
      1734 103889.41130     4.59887    64.36326    62.31623     0.09086
      1735 103972.52283     4.60255    59.84780    62.32086     0.09995
      1736 104055.70085     4.60623    64.68332    62.32546     0.09080
      1737 104138.94541     4.60991    61.35859    62.33004     0.09325
      1738 104222.25657     4.61360    68.23318    62.33460     0.08179
      1739 104305.63437     4.61729    65.35843    62.33913     0.08766
      1740 104389.07888     4.62098    65.03283    62.34364     0.08939
      1741 104472.59015     4.62468    59.94788    62.34812     0.09692
      1742 104556.16822     4.62837    65.35812    62.35258     0.08649
      1743 104639.81315     4.63208    59.00394    62.35702     0.09642
      1744 104723.52500     4.63578    62.87117    62.36143     0.09097
      1745 104807.30382     4.63949    61.17441    62.36582     0.09275
      1746 104891.14967     4.64320    60.17501    62.37018     0.09389
      1747 104975.06259     4.64691    65.85157    62.37452     0.08427
      1748 105059.04264     4.65063    61.83389    62.37884     0.09054
      1749 105143.08987     4.65434    66.57979    62.38313     0.08455
      1750 105227.20434     4.65807    62.79391    62.38740     0.08595
      1751 105311.38610     4.66179    62.89944    62.39164     0.08536
      1752 105395.63521     4.66552    64.81289    62.39587     0.08373
      1753 105479.95172     4.66925    58.44229    62.40006     0.09113
      1754 105564.33568     4.67298    60.58692    62.40424     0.09244
      1755 105648.78715     4.67672    69.13852    62.40839     0.07809
      1756 105733.30618     4.68046    64.04715    62.41251     0.08477
      1757 105817.89283     4.68420    66.71573    62.41662     0.08067
      1758 105902.54714     4.68795    64.62877    62.42070     0.08565
      1759 105987.26918     4.69170    66.17352    62.42475     0.07980
      1760 106072.05899     4.69545    66.33642    62.42878     0.07736
      1761 106156.91664     4.69921    60.13117    62.43279     0.08820
      1762 106241.84217     4.70296    54.98635    62.43678     0.09386
      1763 106326.83565     4.70672    57.56885    62.44074     0.09010
      1764 106411.89712     4.71049    57.08120    62.44467     0.09037
      1765 106497.02663     4.71425    62.65449    62.44859     0.08192
      1766 106582.22426     4.71802    67.30892    62.45248     0.07659
      1767 106667.49003     4.72180    66.66866    62.45635     0.07583
      1768 106752.82403     4.72557    62.72761    62.46019     0.08128
      1769 106838.22629     4.72935    67.68037    62.46401     0.07586
      1770 106923.69687     4.73313    56.66380    62.46781     0.08848
      1771 107009.23582     4.73692    62.26878    62.47158     0.08095
      1772 107094.84321     4.74071    62.88672    62.47534     0.07601
      1773 107180.51909     4.74450    64.58167    62.47906     0.07575
      1774 107266.26350     4.74829    64.53896    62.48277     0.07756
      1775 107352.07651     4.75209    65.44917    62.48645     0.07723
      1776 107437.95817     4.75589    68.61092    62.49011     0.06994
      1777 107523.90854     4.75969    56.48532    62.49375     0.08649
      1778 107609.92767     4.76350    60.18483    62.49736     0.08052
      1779 107696.01561     4.76731    61.41175    62.50095     0.07921
      1780 107782.17242     4.77112    58.54267    62.50452     0.08512
      1781 107868.39816     4.77494    66.75405    62.50806     0.07198
      1782 107954.69288     4.77875    66.55110    62.51158     0.07392
      1783 108041.05663     4.78257    63.87679    62.51508     0.07514
      1784 108127.48948     4.78640    62.11887    62.51856     0.07820
      1785 108213.99147     4.79023    62.46991    62.52201     0.07879
      1786 108300.56266     4.79406    68.63392    62.52544     0.06953
      1787 108387.20311     4.79789    64.49359    62.52885     0.07536
      1788 108473.91288     4.80173    62.87964    62.53223     0.07448
      1789 108560.69201     4.80557    63.85584    62.53560     0.07741
      1790 108647.54056     4.80941    68.73929    62.53894     0.07043
      1791 108734.45859     4.81326    61.64734    62.54225     0.07640
      1792 108821.44616     4.81711    55.82612    62.54555     0.08316
      1793 108908.50332     4.82096    68.26968    62.54882     0.07152
      1794 108995.63012     4.82481    61.13795    62.55207     0.07823
      1795 109082.82662     4.82867    66.19242    62.55530     0.06976
      1796 109170.09288     4.83253    72.11644    62.55851     0.06525
      1797 109257.42896     4.83640    63.64018    62.56170     0.07372
      1798 109344.83490     4.84026    62.99466    62.56486     0.07201
      1799 109432.31077     4.84413    62.06342    62.56800     0.07322
      1800 109519.85662     4.84801    69.01397    62.57112     0.06485
      1801 109607.47250     4.85188    58.40553    62.57422     0.08078
      1802 109695.15848     4.85576    55.53053    62.57729     0.07800
      1803 109782.91461     4.85965    67.75347    62.58034     0.06494
      1804 109870.74094     4.86353    58.40302    62.58338     0.07581
      1805 109958.63753     4.86742    62.96094    62.58639     0.07322
      1806 110046.60444     4.87132    66.20757    62.58937     0.06820
      1807 110134.64173     4.87521    57.48951    62.59234     0.07901
      1808 110222.74944     4.87911    70.28601    62.59529     0.06171
      1809 110310.92764     4.88301    62.68648    62.59821     0.06832
      1810 110399.17638     4.88692    62.03372    62.60112     0.07216
      1811 110487.49572     4.89082    63.03506    62.60400     0.07270
      1812 110575.88572     4.89473    53.45090    62.60686     0.08246
      1813 110664.34643     4.89865    63.82791    62.60970     0.06905
      1814 110752.87791     4.90257    62.29430    62.61252     0.07100
      1815 110841.48021     4.90649    64.85821    62.61531     0.06973
      1816 110930.15339     4.91041    68.93042    62.61809     0.06325
      1817 111018.89751     4.91434    62.99312    62.62085     0.07102
      1818 111107.71263     4.91827    61.14160    62.62358     0.06943
      1819 111196.59880     4.92220    74.64896    62.62630     0.05568
      1820 111285.55608     4.92613    66.53498    62.62899     0.06265
      1821 111374.58453     4.93007    67.05781    62.63166     0.06321
      1822 111463.68419     4.93402    63.27809    62.63432     0.06605
      1823 111552.85514     4.93796    60.94213    62.63695     0.06927
      1824 111642.09743     4.94191    70.43986    62.63956     0.05869
      1825 111731.41110     4.94586    61.74191    62.64215     0.06717
      1826 111820.79623     4.94982    62.51216    62.64473     0.06584
      1827 111910.25287     4.95378    61.92357    62.64728     0.06370
      1828 111999.78107     4.95774    62.09359    62.64981     0.06449
      1829 112089.38090     4.96170    74.78045    62.65232     0.05351
      1830 112179.05240     4.96567    64.25117    62.65481     0.06204
      1831 112268.79564     4.96964    65.16616    62.65729     0.05960
      1832 112358.61068     4.97361    58.67054    62.65974     0.06844
      1833 112448.49757     4.97759    62.65464    62.66217     0.06213
      1834 112538.45637     4.98157    61.54962    62.66459     0.06275
      1835 112628.48713     4.98555    61.28317    62.66698     0.06314
      1836 112718.58992     4.98954    51.44886    62.66936     0.07611
      1837 112808.76479     4.99353    62.05688    62.67171     0.06276
      1838 112899.01180     4.99752    63.94793    62.67405     0.06060
      1839 112989.33101     5.00152    57.30049    62.67637     0.06809
      1840 113079.72248     5.00552    61.65810    62.67867     0.06079
      1841 113170.18626     5.00952    57.60004    62.68095     0.06704
      1842 113260.72241     5.01353    58.19721    62.68321     0.06848
      1843 113351.33098     5.01754    57.63295    62.68545     0.06723
      1844 113442.01205     5.02155    58.67031    62.68768     0.06701
      1845 113532.76566     5.02556    72.03957    62.68988     0.05555
      1846 113623.59187     5.02958    67.55297    62.69207     0.05473
      1847 113714.49074     5.03361    57.21290    62.69424     0.07145
      1848 113805.46234     5.03763    58.73603    62.69639     0.06338
      1849 113896.50671     5.04166    54.73123    62.69852     0.06882
      1850 113987.62391     5.04569    59.59500    62.70064     0.06434
      1851 114078.81401     5.04972    63.86971    62.70274     0.05931
      1852 114170.07706     5.05376    70.41288    62.70482     0.05256
      1853 114261.41312     5.05780    64.09125    62.70688     0.06139
      1854 114352.82225     5.06185    56.77265    62.70893     0.06809
      1855 114444.30451     5.06590    65.48811    62.71095     0.05706
      1856 114535.85996     5.06995    69.71397    62.71296     0.05680
      1857 114627.48864     5.07400    62.82252    62.71496     0.05960
      1858 114719.19064     5.07806    67.06028    62.71693     0.05504
      1859 114810.96599     5.08212    63.07045    62.71889     0.05858
      1860 114902.81476     5.08618    67.21092    62.72084     0.05716
      1861 114994.73701     5.09025    65.20526    62.72276     0.05564
      1862 115086.73280     5.09432    65.38720    62.72467     0.05856
      1863 115178.80219     5.09839    62.42387    62.72656     0.05844
      1864 115270.94523     5.10247    64.57116    62.72844     0.05830
      1865 115363.16199     5.10655    59.13479    62.73030     0.06141
      1866 115455.45252     5.11063    70.68295    62.73215     0.05075
      1867 115547.81688     5.11472    72.88622    62.73397     0.04959
      1868 115640.25513     5.11881    59.56038    62.73579     0.06030
      1869 115732.76734     5.12290    59.12549    62.73758     0.06185
      1870 115825.35355     5.12700    59.92812    62.73936     0.06039
      1871 115918.01383     5.13110    63.20949    62.74113     0.05615
      1872 116010.74824     5.13520    66.45311    62.74288     0.05475
      1873 116103.55684     5.13931    67.17309    62.74462     0.05339
      1874 116196.43969     5.14342    71.90999    62.74634     0.05090
      1875 116289.39684     5.14753    67.44499    62.74804     0.05478
      1876 116382.42836     5.15165    68.54164    62.74973     0.05327
      1877 116475.53430     5.15577    62.74624    62.75141     0.05848
      1878 116568.71473     5.15989    61.84081    62.75307     0.05568
      1879 116661.96970     5.16402    60.99207    62.75472     0.05799
      1880 116755.29927     5.16815    64.73663    62.75635     0.05442
      1881 116848.70351     5.17228    62.62291    62.75797     0.05796
      1882 116942.18248     5.17641    63.96228    62.75958     0.05510
      1883 117035.73622     5.18055    67.30401    62.76117     0.05388
      1884 117129.36481     5.18470    65.67948    62.76275     0.05285
      1885 117223.06830     5.18884    64.13126    62.76431     0.05533
      1886 117316.84676     5.19299    64.37423    62.76586     0.05250
      1887 117410.70023     5.19714    64.26701    62.76740     0.05404
      1888 117504.62880     5.20130    64.00196    62.76892     0.05602
      1889 117598.63250     5.20546    68.02711    62.77044     0.05065
      1890 117692.71140     5.20962    66.22328    62.77193     0.05251
      1891 117786.86557     5.21379    63.96941    62.77342     0.05282
      1892 117881.09507     5.21796    69.21516    62.77490     0.05088
      1893 117975.39994     5.22213    61.67744    62.77636     0.05380
      1894 118069.78026     5.22630    67.60713    62.77781     0.04971
      1895 118164.23609     5.23048    60.05250    62.77924     0.05258
      1896 118258.76747     5.23466    61.86648    62.78067     0.05503
      1897 118353.37449     5.23885    61.67911    62.78209     0.05316
      1898 118448.05719     5.24304    62.63280    62.78349     0.05107
      1899 118542.81563     5.24723    64.66539    62.78488     0.05228
      1900 118637.64989     5.25143    73.69056    62.78626     0.04456
      1901 118732.56001     5.25563    63.24228    62.78763     0.05293
      1902 118827.54605     5.25983    57.31919    62.79040     0.05974
      1903 118922.60809     5.26404    63.01587    62.79370     0.05158
      1904 119017.74618     5.26824    59.87970    62.79576     0.05522
      1905 119112.96037     5.27246    63.48502    62.79737     0.05004
      1906 119208.25074     5.27667    59.89738    62.79888     0.05399
      1907 119303.61734     5.28089    61.84396    62.80035     0.05308
      1908 119399.06024     5.28512    54.80655    62.80182     0.05877
      1909 119494.57949     5.28934    58.57651    62.80329     0.05412
      1910 119590.17515     5.29357    66.73231    62.80476     0.04846
      1911 119685.84729     5.29780    65.13722    62.80623     0.04799
      1912 119781.59597     5.30204    67.30803    62.80770     0.04734
      1913 119877.42124     5.30628    64.31421    62.80918     0.04692
      1914 119973.32318     5.31052    62.24346    62.81066     0.05001
      1915 120069.30184     5.31477    54.01374    62.81215     0.05628
      1916 120165.35728     5.31902    60.14897    62.81365     0.04995
      1917 120261.48957     5.32327    67.25614    62.81516     0.04490
      1918 120357.69876     5.32753    75.87755    62.81668     0.04010
      1919 120453.98492     5.33179    66.45985    62.81821     0.04450
      1920 120550.34811     5.33605    65.33497    62.81976     0.04790
      1921 120646.78838     5.34032    66.86078    62.82132     0.04575
      1922 120743.30581     5.34459    61.06503    62.82291     0.04904
      1923 120839.90046     5.34886    63.30290    62.82452     0.04797
      1924 120936.57238     5.35314    62.71780    62.82616     0.04934
      1925 121033.32164     5.35742    62.94853    62.82783     0.05060
      1926 121130.14829     5.36170    59.31227    62.82953     0.05215
      1927 121227.05241     5.36599    69.55833    62.83127     0.04363
      1928 121324.03406     5.37028    65.79689    62.83306     0.04400
      1929 121421.09328     5.37458    54.13087    62.83491     0.05668
      1930 121518.23016     5.37887    63.96926    62.83681     0.04620
      1931 121615.44474     5.38317    58.55627    62.83877     0.05054
      1932 121712.73710     5.38748    63.90772    62.84082     0.04553
      1933 121810.10729     5.39179    63.70058    62.84295     0.04366
      1934 121907.55537     5.39610    65.40235    62.84518     0.04452
      1935 122005.08142     5.40041    66.09553    62.84753     0.04272
      1936 122102.68548     5.40473    59.82305    62.85002     0.04838
      1937 122200.36763     5.40905    69.96461    62.85266     0.04060
      1938 122298.12792     5.41338    60.80723    62.85548     0.04640
      1939 122395.96643     5.41771    59.95859    62.85852     0.04772
      1940 122493.88320     5.42204    61.94551    62.86180     0.04581
      1941 122591.87831     5.42637    61.86969    62.86539     0.04479
      1942 122689.95181     5.43071    62.66803    62.86933     0.04464
      1943 122788.10377     5.43505    70.52423    62.87369     0.03992
      1944 122886.33425     5.43940    64.62687    62.87857     0.04313
      1945 122984.64332     5.44375    62.78421    62.88407     0.04449
      1946 123083.03104     5.44810    66.10720    62.89036     0.04286
      1947 123181.49746     5.45246    63.61470    62.89762     0.04442
      1948 123280.04266     5.45682    63.03194    62.90616     0.04148
      1949 123378.66669     5.46118    62.49809    62.91650     0.04620
      1950 123477.36963     5.46555    69.28227    62.92969     0.04000
      1951 123576.15152     5.46992    62.21588    62.94798     0.04347
      1952 123675.01244     5.47429    77.76567    62.97636     0.03829
      1953 123773.95245     5.47867    66.12293    63.02508     0.04162
      1954 123872.97162     5.48305    63.88272    63.11314     0.04536
      1955 123972.06999     5.48744    58.15079    63.27122     0.04813
      1956 124071.24765     5.49182    61.74273    63.54065     0.04278
      1957 124170.50465     5.49621    59.07751    63.96446     0.04448
      1958 124269.84105     5.50061    66.60714    64.56709     0.03853
      1959 124369.25692     5.50501    63.12942    65.32897     0.03983
      1960 124468.75233     5.50941    62.78049    66.16494     0.04058
      1961 124568.32733     5.51381    70.16261    66.91850     0.03672
      1962 124667.98199     5.51822    57.35062    67.38961     0.04427
      1963 124767.71638     5.52264    62.39890    67.42210     0.04127
      1964 124867.53055     5.52705    69.10761    67.00889     0.03808
      1965 124967.42458     5.53147    72.17094    66.29196     0.03432
      1966 125067.39852     5.53589    60.38783    65.46520     0.04177
      1967 125167.45243     5.54032    69.57548    64.69117     0.03554
      1968 125267.58640     5.54475    68.99103    64.06577     0.03628
      1969 125367.80046     5.54918    69.35852    63.61754     0.03710
      1970 125468.09471     5.55362    62.94640    63.32753     0.03730
      1971 125568.46918     5.55806    62.35066    63.15513     0.03996
      1972 125668.92396     5.56251    60.44583    63.05868     0.04217
      1973 125769.45910     5.56695    72.05887    63.00602     0.03275
      1974 125870.07466     5.57140    56.97377    62.97655     0.04098
      1975 125970.77072     5.57586    73.41842    62.95879     0.03292
      1976 126071.54734     5.58032    64.78855    62.94697     0.03673
      1977 126172.40458     5.58478    66.67001    62.93839     0.03682
      1978 126273.34250     5.58925    64.90756    62.93182     0.03682
      1979 126374.36117     5.59371    65.78729    62.92662     0.03761
      1980 126475.46066     5.59819    61.89993    62.92248     0.03754
      1981 126576.64103     5.60266    56.19510    62.91915     0.04019
      1982 126677.90235     5.60714    63.38080    62.91648     0.03706
      1983 126779.24467     5.61163    63.40872    62.91435     0.03691
      1984 126880.66806     5.61611    64.16066    62.91268     0.03491
      1985 126982.17260     5.62060    63.92428    62.91138     0.03764
      1986 127083.75834     5.62510    64.14815    62.91040     0.03464
      1987 127185.42534     5.62960    65.62839    62.90969     0.03646
      1988 127287.17368     5.63410    61.61293    62.90921     0.03823
      1989 127389.00342     5.63860    65.26739    62.90893     0.03522
      1990 127490.91462     5.64311    67.13785    62.90882     0.03550
      1991 127592.90736     5.64762    65.83085    62.90887     0.03435
      1992 127694.98168     5.65214    65.26744    62.90905     0.03503
      1993 127797.13767     5.65666    66.89405    62.90935     0.03409
      1994 127899.37538     5.66118    59.88971    62.90975     0.03815
      1995 128001.69488     5.66571    64.96468    62.91026     0.03608
      1996 128104.09623     5.67024    66.91116    62.91084     0.03528
      1997 128206.57951     5.67477    78.10780    62.91151     0.02787
      1998 128309.14477     5.67931    70.31900    62.91224     0.03374
      1999 128411.79209     5.68385    71.74610    62.91305     0.03031
      2000 128514.52152     5.68840    78.41123    62.91391     0.02724
      2001 128617.33314     5.69294    61.55547    62.91483     0.03627
      2002 128720.22701     5.69750    66.64778    62.91580     0.03330
      2003 128823.20319     5.70205    61.65728    62.91682     0.03756
      2004 128926.26175     5.70661    57.66499    62.91789     0.04059
      2005 129029.40276     5.71117    63.71146    62.91900     0.03576
      2006 129132.62628     5.71574    65.29471    62.92015     0.03286
      2007 129235.93238     5.72031    61.32059    62.92134     0.03653
      2008 129339.32113     5.72488    72.01154    62.92257     0.03123
      2009 129442.79259     5.72946    61.57692    62.92384     0.03754
      2010 129546.34682     5.73404    78.98599    62.92514     0.02777
      2011 129649.98390     5.73863    65.07876    62.92648     0.03345
      2012 129753.70389     5.74322    65.46124    62.92785     0.03376
      2013 129857.50685     5.74781    62.30504    62.92926     0.03548
      2014 129961.39285     5.75240    70.74714    62.93070     0.02956
      2015 130065.36197     5.75700    70.71491    62.93217     0.02977
      2016 130169.41426     5.76161    69.20297    62.93367     0.03124
      2017 130273.54979     5.76621    62.28574    62.93520     0.03461
      2018 130377.76863     5.77082    58.11922    62.93676     0.03634
      2019 130482.07084     5.77544    69.37480    62.93832     0.03071
      2020 130586.45650     5.78006    58.79253    62.93754     0.03741
      2021 130690.92567     5.78468    54.56534    62.93802     0.04113
      2022 130795.47841     5.78930    70.01893    62.93959     0.03099
      2023 130900.11479     5.79393    60.00956    62.94138     0.03456
      2024 131004.83488     5.79856    62.64116    62.94323     0.03599
      2025 131109.63875     5.80320    68.44274    62.94512     0.03238
      2026 131214.52646     5.80784    55.93103    62.94703     0.04030
      2027 131319.49808     5.81248    60.79998    62.94896     0.03784
      2028 131424.55368     5.81713    73.27820    62.95092     0.02897
      2029 131529.69332     5.82178    69.83549    63.16584     0.03078
      2030 131634.91708     5.82644    82.03864    63.85211     0.02585
      2031 131740.22501     5.83110    66.66130    64.61973     0.02983
      2032 131845.61719     5.83576    62.81973    64.81760     0.03161
      2033 131951.09368     5.84042    57.05182    64.90560     0.03552
      2034 132056.65456     5.84509    58.65658    64.97456     0.03571
      2035 132162.29988     5.84977    60.58808    65.04229     0.03435
      2036 132268.02972     5.85445    59.05348    65.11226     0.03486
      2037 132373.84415     5.85913    63.91468    65.18564     0.03196
      2038 132479.74322     5.86381    68.12429    65.26270     0.02956
      2039 132585.72702     5.86850    71.02624    65.34370     0.02899
      2040 132691.79560     5.87319    62.19700    65.42890     0.03119
      2041 132797.94903     5.87789    68.78129    65.51862     0.02882
      2042 132904.18739     5.88259    56.73880    65.61318     0.03316
      2043 133010.51074     5.88729    59.66966    65.71295     0.03333
      2044 133116.91915     5.89200    61.15724    65.81832     0.03241
      2045 133223.41269     5.89671    63.71652    65.92984     0.03062
      2046 133329.99142     5.90142    65.15212    66.04790     0.03182
      2047 133436.65541     5.90614    66.37022    66.17303     0.03025
      2048 133543.40474     5.91087    54.28362    66.30578     0.03713
      2049 133650.23946     5.91559    70.98941    66.44682     0.02683
      2050 133757.15965     5.92032    70.41271    66.59686     0.02977
      2051 133864.16538     5.92505    76.01925    66.75667     0.02444
      2052 133971.25671     5.92979    64.18189    66.92715     0.03065
      2053 134078.43372     5.93453    56.83668    67.10927     0.03337
      2054 134185.69646     5.93928    72.14046    67.30413     0.02628
      2055 134293.04502     5.94403    66.50830    67.51296     0.02918
      2056 134400.47946     5.94878    61.53994    67.73713     0.03053
      2057 134507.99984     5.95354    72.40637    67.97821     0.02565
      2058 134615.60624     5.95830    62.12887    68.23794     0.03102
      2059 134723.29872     5.96306    60.75983    69.10802     0.03116
      2060 134831.07736     5.96783    56.76436    70.16319     0.03561
      2061 134938.94223     5.97260    58.00241    70.77307     0.03082
      2062 135046.89338     5.97738    70.08011    71.22549     0.02767
      2063 135154.93089     5.98215    73.06446    71.67629     0.02595
      2064 135263.05484     5.98694    70.78360    72.15845     0.02762
      2065 135371.26528     5.99172    73.62945    72.68231     0.02717
      2066 135479.56229     5.99651    71.77069    73.25476     0.02756
      2067 135587.94594     6.00131    67.42440    73.88213     0.02931
      2068 135696.41630     6.00611    76.88511    74.57188     0.02399
      2069 135804.97343     6.01091    64.04847    75.33281     0.02980
      2070 135913.61741     6.01572    64.89056    76.17534     0.02914
      2071 136022.34831     6.02053    56.81332    77.11185     0.03472
      2072 136131.16619     6.02534    73.40465    78.15722     0.02534
      2073 136240.07112     6.03016    70.20281    79.32938     0.02669
      2074 136349.06318     6.03498    87.26577    80.65012     0.02113
      2075 136458.14243     6.03980    66.13633    82.14614     0.02783
      2076 136567.30894     6.04463    68.49361    83.85049     0.02939
      2077 136676.56279     6.04947    66.32505    85.80476     0.02967
      2078 136785.90404     6.05430    63.62887    88.06225     0.03002
      2079 136895.33276     6.05914    78.69604    90.69505     0.02431
      2080 137004.84903     6.06399    78.35362    93.80941     0.02429
      2081 137114.45291     6.06884    82.70469    97.58239     0.02298
      2082 137224.14447     6.07369    80.17668   102.34779     0.02403
      2083 137333.92378     6.07854    89.28319   108.78304     0.02142
      2084 137443.79092     6.08340    74.55186   118.27533     0.02802
      2085 137553.74596     6.08827   100.31828   133.54645     0.01989
      2086 137663.78895     6.09314   107.82180   159.54150     0.01871
      2087 137773.91998     6.09801   146.38582   204.45944     0.01481
      2088 137884.13912     6.10288   213.10392   279.92878     0.01029
      2089 137994.44643     6.10776   339.05434   400.08998     0.00646
      2090 138104.84199     6.11265   536.34023   578.15724     0.00417
      2091 138215.32586     6.11753   806.43009   820.59420     0.00289
      2092 138325.89812     6.12243  1162.79284  1120.15772     0.00200
      2093 138436.55884     6.12732  1551.96273  1450.25544     0.00151
      2094 138547.30809     6.13222  1913.94795  1763.14000     0.00123
      2095 138658.14593     6.13712  2129.12556  1995.11623     0.00109
      2096 138769.07245     6.14203  2065.66450  2085.30000     0.00112
      2097 138880.08771     6.14694  1970.35951  2007.07970     0.00119
      2098 138991.19178     6.15186  1732.11910  1785.07780     0.00133
      2099 139102.38473     6.15677  1457.86743  1477.88335     0.00157
      2100 139213.66664     6.16170  1111.86139  1148.66730     0.00205
      2101 139325.03757     6.16662   844.22080   846.59899     0.00265
      2102 139436.49760     6.17155   589.25687   600.22199     0.00385
      2103 139548.04680     6.17649   445.42059   418.32291     0.00495
      2104 139659.68524     6.18143   323.68989   295.31300     0.00664
      2105 139771.41299     6.18637   275.12634   218.30895     0.00762
      2106 139883.23012     6.19131   200.32930   173.06976     0.01055
      2107 139995.13670     6.19626   161.80901   147.61322     0.01266
      2108 140107.13281     6.20122   135.68496   133.61339     0.01475
      2109 140219.21852     6.20618   123.20766   125.96723     0.01600
      2110 140331.39389     6.21114   114.95051   121.88540     0.01715
      2111 140443.65901     6.21610   112.84848   120.01091     0.01714
      2112 140556.01393     6.22107   111.04784   119.81702     0.01841
      2113 140668.45875     6.22605   113.15928   121.32151     0.01635
      2114 140780.99351     6.23103   111.22995   125.08885     0.01706
      2115 140893.61831     6.23601   121.64342   132.50497     0.01518
      2116 141006.33320     6.24099   120.91722   146.31882     0.01626
      2117 141119.13827     6.24598   142.96966   171.37732     0.01344
      2118 141232.03358     6.25098   169.31707   215.29257     0.01233
      2119 141345.01921     6.25598   241.75277   288.50414     0.00864
      2120 141458.09522     6.26098   396.58944   402.99773     0.00520
      2121 141571.26170     6.26598   542.78040   569.09646     0.00394
      2122 141684.51871     6.27099   798.33094   790.45940     0.00270
      2123 141797.86632     6.27601  1124.07780  1058.51659     0.00193
      2124 141911.30462     6.28103  1492.09764  1348.31509     0.00144
      2125 142024.83366     6.28605  1756.29561  1617.66893     0.00121
      2126 142138.45353     6.29107  1948.16158  1812.23431     0.00110
      2127 142252.16429     6.29610  1933.25717  1881.83113     0.00110
      2128 142365.96602     6.30114  1817.17248  1806.28632     0.00118
      2129 142479.85879     6.30617  1561.75034  1608.04049     0.00135
      2130 142593.84268     6.31122  1240.12810  1336.99965     0.00171
      2131 142707.91775     6.31626   985.01644  1046.46873     0.00210
      2132 142822.08409     6.32131   730.23444   778.17536     0.00289
      2133 142936.34176     6.32637   566.93001   556.88104     0.00358
      2134 143050.69083     6.33142   393.12636   390.92057     0.00519
      2135 143165.13138     6.33649   298.85013   276.38180     0.00667
      2136 143279.66349     6.34155   233.01854   202.76058     0.00822
      2137 143394.28722     6.34662   184.49917   157.99101     0.01025
      2138 143509.00265     6.35170   149.94337   131.62754     0.01251
      2139 143623.80985     6.35678   132.28554   116.08104     0.01358
      2140 143738.70890     6.36186   111.74548   106.51798     0.01564
      2141 143853.69986     6.36694   106.01842   100.16788     0.01633
      2142 143968.78282     6.37203    89.91916    95.56798     0.01893
      2143 144083.95785     6.37713    85.26708    91.98593     0.01971
      2144 144199.22502     6.38223    79.90231    89.05882     0.01947
      2145 144314.58440     6.38733    83.33739    86.59799     0.01946
      2146 144430.03606     6.39244    64.36604    84.49461     0.02414
      2147 144545.58009     6.39755    75.59149    82.67767     0.02123
      2148 144661.21656     6.40266    80.95481    81.09576     0.02071
      2149 144776.94553     6.40778    90.85031    79.70956     0.01767
      2150 144892.76709     6.41291    76.79169    78.48790     0.02033
      2151 145008.68130     6.41803    80.49007    77.40568     0.02015
      2152 145124.68825     6.42316    82.88597    76.44238     0.01942
      2153 145240.78800     6.42830    73.41144    75.58118     0.02330
      2154 145356.98063     6.43344    76.48276    74.80811     0.02184
      2155 145473.26621     6.43858    66.41747    74.11154     0.02374
      2156 145589.64482     6.44373    78.69798    73.48167     0.01951
      2157 145706.11654     6.44888    70.33137    72.91029     0.02429
      2158 145822.68143     6.45404    72.39215    72.29919     0.02113
      2159 145939.33958     6.45920    67.55185    70.55406     0.02301
      2160 146056.09105     6.46436    74.13148    69.83705     0.02032
      2161 146172.93592     6.46953    75.39723    69.43453     0.02054
      2162 146289.87427     6.47470    71.02357    69.11005     0.02344
      2163 146406.90617     6.47988    51.64514    68.82037     0.02993
      2164 146524.03170     6.48506    67.43732    68.55603     0.02401
      2165 146641.25092     6.49025    61.90689    68.31299     0.02463
      2166 146758.56392     6.49543    74.78212    68.08914     0.02128
      2167 146875.97077     6.50063    79.56827    67.88263     0.02055
      2168 146993.47155     6.50582    60.80111    67.69182     0.02586
      2169 147111.06633     6.51103    74.16848    67.51528     0.02147
      2170 147228.75518     6.51623    79.08661    67.35172     0.01931
      2171 147346.53818     6.52144    71.87395    67.19999     0.01966
      2172 147464.41541     6.52666    69.61627    67.05910     0.02128
      2173 147582.38695     6.53187    67.54244    66.92811     0.02317
      2174 147700.45286     6.53710    83.30133    66.80623     0.01819
      2175 147818.61322     6.54232    65.49209    66.69271     0.02076
      2176 147936.86811     6.54755    60.79578    66.58691     0.02413
      2177 148055.21760     6.55279    66.43251    66.48835     0.02170
      2178 148173.66178     6.55803    66.28615    66.39634     0.02253
      2179 148292.20071     6.56327    69.87297    66.31041     0.02141
      2180 148410.83447     6.56852    66.24044    66.23013     0.02089
      2181 148529.56314     6.57377    71.63673    66.15508     0.02036
      2182 148648.38679     6.57902    65.86037    66.08490     0.02219
      2183 148767.30550     6.58428    74.65056    66.01927     0.02167
      2184 148886.31934     6.58955    70.20714    65.95787     0.02102
      2185 149005.42840     6.59482    60.32473    65.90044     0.02294
      2186 149124.63274     6.60009    72.89118    65.84671     0.02049
      2187 149243.93244     6.60537    53.42544    65.79645     0.02674
      2188 149363.32759     6.61065    61.65219    65.74952     0.02351
      2189 149482.81825     6.61593    74.22767    65.70565     0.02016
      2190 149602.40451     6.62122    67.36520    65.65703     0.02163
      2191 149722.08643     6.62651    64.15769    64.84992     0.02291
      2192 149841.86410     6.63181    79.33034    64.15327     0.01818
      2193 149961.73759     6.63711    67.50811    64.06736     0.02208
      2194 150081.70698     6.64242    62.18268    64.06594     0.02222
      2195 150201.77235     6.64773    66.40986    64.07832     0.02136
      2196 150321.93376     6.65305    70.38434    64.09327     0.02230
      2197 150442.19131     6.65837    66.88078    64.10836     0.02134
      2198 150562.54506     6.66369    57.45594    64.13337     0.02588
      2199 150682.99510     6.66902    68.35103    64.17573     0.02122
      2200 150803.54150     6.67435    73.26549    64.21737     0.01942
      2201 150924.18433     6.67968    59.81275    64.23864     0.02410
      2202 151044.92368     6.68502    73.62506    64.25694     0.01834
      2203 151165.75962     6.69037    66.48940    64.27499     0.02154
      2204 151286.69222     6.69572    75.41168    64.29320     0.01881
      2205 151407.72158     6.70107    75.49408    64.31164     0.01897
      2206 151528.84776     6.70643    63.69668    64.33034     0.02207
      2207 151650.07083     6.71179    81.48449    64.34929     0.01810
      2208 151771.39089     6.71716    69.64608    64.36851     0.02112
      2209 151892.80800     6.72253    69.13486    64.38801     0.02119
      2210 152014.32225     6.72790    69.84346    64.40778     0.02134
      2211 152135.93371     6.73328    75.95725    64.42784     0.01996
      2212 152257.64245     6.73866    74.47471    64.44820     0.02031
      2213 152379.44857     6.74405    68.96369    64.46888     0.02215
      2214 152501.35213     6.74944    79.04661    64.48987     0.01902
      2215 152623.35321     6.75484    82.12726    64.51119     0.01751
      2216 152745.45189     6.76024    66.98558    64.53286     0.02247
      2217 152867.64825     6.76564    63.76273    64.55488     0.02251
      2218 152989.94237     6.77105    76.68121    64.57727     0.01882
      2219 153112.33433     6.77647    55.75932    64.60004     0.02353
      2220 153234.82419     6.78188    69.48613    64.62322     0.01970
      2221 153357.41205     6.78731    60.11511    64.64682     0.02325
      2222 153480.09798     6.79273    73.49446    64.67086     0.02031
      2223 153602.88206     6.79816    66.14481    64.69537     0.02189
      2224 153725.76437     6.80360    79.71586    64.72036     0.01822
      2225 153848.74498     6.80904    68.03114    64.74587     0.02163
      2226 153971.82397     6.81448    63.21252    64.77192     0.02256
      2227 154095.00143     6.81993    64.05910    64.79854     0.02424
      2228 154218.27743     6.82538    69.96413    64.82577     0.02069
      2229 154341.65206     6.83084    77.39083    64.85364     0.01854
      2230 154465.12538     6.83630    63.29969    64.88220     0.02365
      2231 154588.69748     6.84176    58.65131    64.91150     0.02536
      2232 154712.36844     6.84723    79.40961    64.94159     0.01703
      2233 154836.13833     6.85271    69.11451    64.97252     0.02009
      2234 154960.00724     6.85819    62.18950    65.00437     0.02199
      2235 155083.97525     6.86367    68.57009    65.03720     0.02214
      2236 155208.04243     6.86916    77.78108    65.07110     0.01873
      2237 155332.20886     6.87465    60.25991    65.10617     0.02265
      2238 155456.47463     6.88015    69.12324    65.14252     0.02068
      2239 155580.83981     6.88565    75.47388    65.18028     0.01851
      2240 155705.30448     6.89115    79.12876    65.21957     0.01707
      2241 155829.86872     6.89666    55.57591    65.26056     0.02549
      2242 155954.53262     6.90217    64.41604    65.30343     0.02033
      2243 156079.29624     6.90769    62.58831    65.34839     0.01953
      2244 156204.15968     6.91321    64.92405    65.39570     0.02082
      2245 156329.12301     6.91874    44.99001    65.44563     0.02952
      2246 156454.18631     6.92427    73.51014    65.49854     0.01887
      2247 156579.34966     6.92981    58.39633    65.55481     0.02331
      2248 156704.61314     6.93535    59.71594    65.61492     0.02246
      2249 156829.97683     6.94089    53.29533    65.67942     0.02466
      2250 156955.44081     6.94644    58.37053    65.74900     0.02090
      2251 157081.00516     6.95200    71.64218    65.82445     0.01957
      2252 157206.66996     6.95755    66.92044    65.90679     0.01960
      2253 157332.43530     6.96312    67.40578    65.99723     0.01880
      2254 157458.30125     6.96868    68.05662    66.09739     0.01918
      2255 157584.26789     6.97425    74.56647    66.20946     0.01848
      2256 157710.33530     6.97983    65.15440    66.33675     0.02016
      2257 157836.50357     6.98541    80.34242    66.48472     0.01660
      2258 157962.77278     6.99099    66.58604    66.66323     0.02119
      2259 158089.14299     6.99658    65.51885    66.89079     0.01953
      2260 158215.61431     7.00218    67.96700    67.20201     0.02065
      2261 158342.18680     7.00777    61.03065    67.65944     0.02333
      2262 158468.86055     7.01338    71.10256    68.36976     0.01891
      2263 158595.63564     7.01898    76.67395    69.50178     0.01805
      2264 158722.51215     7.02459    80.25605    71.29917     0.01825
      2265 158849.49016     7.03021    87.95626    74.07646     0.01628
      2266 158976.56975     7.03583    86.19052    78.18375     0.01768
      2267 159103.75100     7.04146    79.25895    83.93027     0.02037
      2268 159231.03400     7.04709    94.32920    91.46952     0.01651
      2269 159358.41883     7.05272   125.62482   100.66809     0.01271
      2270 159485.90557     7.05836   134.79269   110.99491     0.01164
      2271 159613.49429     7.06400   148.45633   121.46589     0.01070
      2272 159741.18509     7.06965   151.40355   130.68149     0.01104
      2273 159868.97803     7.07530   150.90643   137.02308     0.01094
      2274 159996.87322     7.08096   161.08756   139.11670     0.01035
      2275 160124.87072     7.08662   157.32405   136.46428     0.01048
      2276 160252.97061     7.09228   127.70527   129.71602     0.01326
      2277 160381.17299     7.09795   125.00834   120.29818     0.01298
      2278 160509.47793     7.10363   124.39661   109.80998     0.01313
      2279 160637.88551     7.10931   115.46014    99.61096     0.01295
      2280 160766.39582     7.11499    89.85390    90.63855     0.01798
      2281 160895.00893     7.12068    96.71873    83.37750     0.01569
      2282 161023.72494     7.12637    96.14528    77.91917     0.01507
      2283 161152.54392     7.13207    76.57325    74.07885     0.01958
      2284 161281.46596     7.13777    85.71316    71.53003     0.01679
      2285 161410.49113     7.14348    82.56001    69.91803     0.01745
      2286 161539.61952     7.14919    62.88814    68.93251     0.02433
      2287 161668.85122     7.15490    83.38033    68.33820     0.01809
      2288 161798.18630     7.16062    73.17134    67.97541     0.01908
      2289 161927.62485     7.16635    62.85022    67.74517     0.02319
      2290 162057.16695     7.17207    63.69669    67.59052     0.02243
      2291 162186.81268     7.17781    67.65425    67.48043     0.02164
      2292 162316.56213     7.18355    68.16260    67.39854     0.02031
      2293 162446.41538     7.18929    75.30781    67.33610     0.01930
      2294 162576.37251     7.19504    68.87938    67.28824     0.02310
      2295 162706.43361     7.20079    64.66494    67.25193     0.02376
      2296 162836.59876     7.20655    64.68695    67.22511     0.02291
      2297 162966.86804     7.21231    67.55843    67.20627     0.02203
      2298 163097.24153     7.21807    64.68988    67.19420     0.02309
      2299 163227.71932     7.22384    66.25890    67.18794     0.02130
      2300 163358.30150     7.22962    71.46041    67.18672     0.02053
      2301 163488.98814     7.23540    60.16530    67.18987     0.02576
      2302 163619.77933     7.24118    66.69216    67.19685     0.02289
      2303 163750.67516     7.24697    65.96128    67.20721     0.02338
      2304 163881.67570     7.25276    58.12384    67.22056     0.02379
      2305 164012.78104     7.25856    67.05465    67.23657     0.02317
      2306 164143.99126     7.26437    69.91437    67.25498     0.02342
      2307 164275.30645     7.27017    55.15603    67.27553     0.02793
      2308 164406.72670     7.27599    64.19990    67.29803     0.02309
      2309 164538.25208     7.28180    61.26070    67.32230     0.02392
      2310 164669.88268     7.28762    65.66684    67.34820     0.02281
      2311 164801.61859     7.29345    63.16847    67.37558     0.02551
      2312 164933.45988     7.29928    71.43300    67.40433     0.02014
      2313 165065.40665     7.30512    69.84143    67.43433     0.02334
      2314 165197.45898     7.31095    62.55902    67.46552     0.02422
      2315 165329.61694     7.31680    74.09751    67.49780     0.01999
      2316 165461.88064     7.32265    73.54341    67.53110     0.01986
      2317 165594.25014     7.32850    57.53956    67.56538     0.02694
      2318 165726.72554     7.33436    69.69163    67.60057     0.02311
      2319 165859.30692     7.34022    62.52978    67.63662     0.02532
      2320 165991.99437     7.34609    71.63028    67.67350     0.02124
      2321 166124.78796     7.35197    62.25709    67.71116     0.02400
      2322 166257.68779     7.35784    61.42788    67.74957     0.02404
      2323 166390.69394     7.36372    62.05312    67.78870     0.02367
      2324 166523.80650     7.36961    61.16976    67.82853     0.02370
      2325 166657.02554     7.37550    64.19032    67.86903     0.02265
      2326 166790.35116     7.38140    65.06890    67.91017     0.02296
      2327 166923.78345     7.38730    59.11602    67.95194     0.02486
      2328 167057.32247     7.39321    66.27202    67.99432     0.02176
      2329 167190.96833     7.39912    68.03312    68.03729     0.02267
      2330 167324.72110     7.40503    72.53091    68.08084     0.02208
      2331 167458.58088     7.41095    65.25109    68.12495     0.02374
      2332 167592.54775     7.41688    70.87720    68.16962     0.02208
      2333 167726.62178     7.42280    63.69437    68.21483     0.02462
      2334 167860.80308     7.42874    63.71152    68.26057     0.02262
      2335 167995.09172     7.43468    62.71199    68.30684     0.02528
      2336 168129.48780     7.44062    74.03771    68.35363     0.02092
      2337 168263.99139     7.44657    86.21923    68.40093     0.01732
      2338 168398.60258     7.45252    67.29822    68.44873     0.02408
      2339 168533.32146     7.45848    73.33535    68.49704     0.02219
      2340 168668.14812     7.46444    83.92107    68.54583     0.01846
      2341 168803.08264     7.47041    59.28175    68.59512     0.02479
      2342 168938.12511     7.47638    71.79464    68.64489     0.02181
      2343 169073.27561     7.48236    79.35684    68.69514     0.02000
      2344 169208.53423     7.48834    66.06812    68.74353     0.02533
      2345 169343.90105     7.49433    71.41241    68.74470     0.02198
      2346 169479.37617     7.50032    63.09443    68.78735     0.02417
      2347 169614.95967     7.50631    66.11893    68.83985     0.02249
      2348 169750.65164     7.51231    52.10766    68.89397     0.02768
      2349 169886.45216     7.51832    73.17612    68.94868     0.02242
      2350 170022.36133     7.52433    72.75817    69.00381     0.02169
loop_
_refln_index_h
_refln_index_k
_refln_index_l
_refln_d_spacing
_refln_F_squared_calc
_refln_F_squared_meas
   0   0   2     4.27987  1724.02161  1707.30728 
   0   0   4     2.13994  1016.55089  1010.34262 
   0   0   6     1.42662  1475.87731  1504.99693 
   0   1   1     7.07815    34.55573    38.59605 
   0   1   3     2.78265     8.09984     8.17507 
   0   1   5     1.69633    47.68233    47.19568 
   0   1   7     1.21709     4.87307     4.88456 
   0   2   0     6.29357  1111.85743  1125.88177 
   0   2   2     3.53908  1449.70407  1471.93618 
   0   2   4     2.02602    69.80132    68.67257 
   0   2   6     1.39133    77.83611    79.38595 
   0   3   1     3.76746    14.27095    14.13841 
   0   3   3     2.35938    63.79979    62.60258 
   0   3   5     1.58508     1.50987     1.52212 
   0   3   7     1.17398   138.40117   138.45327 
   0   4   0     3.14679  3092.86485  3130.25801 
   0   4   2     2.53526   384.75815   373.85578 
   0   4   4     1.76954   250.11064   249.42336 
   0   4   6     1.29933  1225.04995  1204.31940 
   0   5   1     2.41514    25.78279    26.07181 
   0   5   3     1.88771   442.36693   444.13538 
   0   5   5     1.41563   277.59976   283.90257 
   0   6   0     2.09786    35.82982    36.60033 
   0   6   2     1.88373   186.94272   189.56956 
   0   6   4     1.49806   840.05947   840.82893 
   0   6   6     1.17969   953.23210   947.93913 
   0   7   1     1.75975   217.48961   226.27282 
   0   7   3     1.52126   305.12440   307.71001 
   0   7   5     1.23989   137.89920   130.91885 
   0   8   0     1.57339   945.44710   969.95476 
   0   8   2     1.47676     1.05347     1.04656 
   0   8   4     1.26763     7.20720     7.03329 
   0   9   1     1.38027    87.06933    88.99491 
   0   9   3     1.25582   427.70329   412.89301 
   0  10   0     1.25871    41.39785    40.37482 
   0  10   2     1.20757     1.34309     1.35341 
   1   0   1     6.13975  1308.81727  1309.57969 
   1   0   2     3.84979    37.73595    37.14910 
   1   0   3     2.71449    51.36842    47.40689 
   1   0   4     2.07949  1041.55598  1047.41107 
   1   0   5     1.68053   291.92656   287.31398 
   1   0   6     1.40829   122.03778   126.93947 
   1   0   7     1.21121     0.19230     0.18689 
   1   1   1     5.51827     3.80652     3.75671 
   1   1   2     3.68144   191.92982   207.60203 
   1   1   3     2.65349    46.11593    44.58640 
   1   1   4     2.05168   214.71908   214.05551 
   1   1   5     1.66575   214.41063   212.66990 
   1   1   6     1.39955   924.86320   932.24522 
   1   1   7     1.20564   665.61765   676.49249 
   1   2   1     4.39483  5531.39462  5477.72898 
   1   2   2     3.28409  1407.49236  1382.79785 
   1   2   3     2.49253  1694.60344  1683.80375 
   1   2   4     1.97450    19.84554    19.80720 
   1   2   5     1.62364  2029.71674  2054.45614 
   1   2   6     1.37430  1239.86054  1263.12388 
   1   2   7     1.18939  1858.37758  1846.38623 
   1   3   1     3.46411     0.63612     0.63674 
   1   3   2     2.83663    35.53657    36.56637 
   1   3   3     2.27910   214.18365   212.47063 
   1   3   4     1.86321   120.28528   118.86617 
   1   3   5     1.56004     1.26552     1.24872 
   1   3   6     1.33509   412.29144   404.26583 
   1   3   7     1.16370   337.08463   314.92349 
   1   4   1     2.80040    68.82910    72.85670 
   1   4   2     2.43642     7.98283     7.99414 
   1   4   3     2.05542  1748.34992  1729.38498 
   1   4   4     1.73490   578.69928   567.99839 
   1   4   5     1.48238     0.01145     0.01151 
   1   4   6     1.28543    11.73635    11.82026 
   1   5   1     2.32924   105.88293   107.23763 
   1   5   2     2.10695    33.39439    33.77414 
   1   5   3     1.84583    18.80522    18.65516 
   1   5   4     1.60325    22.61278    22.52832 
   1   5   5     1.39771    94.21491    96.00825 
   1   5   6     1.22904   227.90378   225.80417 
   1   6   1     1.98517   478.06603   476.60112 
   1   6   2     1.84211   359.90887   360.24008 
   1   6   3     1.65991     0.00107     0.00108 
   1   6   4     1.47687   544.98387   541.59082 
   1   6   5     1.31159   254.65155   251.04573 
   1   6   6     1.16926    74.77056    71.08691 
   1   7   1     1.72568     1.69768     1.70205 
   1   7   2     1.62921    18.18392    18.05069 
   1   7   3     1.49909   314.55805   314.69944 
   1   7   4     1.36017     9.35549     9.53358 
   1   7   5     1.22779   264.43286   265.10124 
   1   8   1     1.52414   358.86757   362.75176 
   1   8   2     1.45645    27.31510    28.21266 
   1   8   3     1.36125  3146.36769  3183.51013 
   1   8   4     1.25471   112.93043   108.37147 
   1   9   1     1.36364    63.06035    65.06677 
   1   9   2     1.31452    78.29903    77.71465 
   1   9   3     1.24326   225.90174   216.12344 
   1   9   4     1.16052    24.39683    22.87161 
   1  10   1     1.23307  1294.41913  1303.44943 
   1  10   2     1.19639   370.69849   354.32373 
   2   0   0     4.40578   780.86223   797.89928 
   2   0   1     3.91733    55.50681    55.37746 
   2   0   2     3.06987  1044.16950  1039.02352 
   2   0   3     2.39489   762.19200   762.25897 
   2   0   4     1.92489   265.18827   267.84982 
   2   0   5     1.59572   782.43111   789.59190 
   2   0   6     1.35724   164.75429   170.90143 
   2   0   7     1.17828   270.97102   271.62093 
   2   1   0     4.15840     0.00549     0.00562 
   2   1   1     3.74038    35.54670    34.17794 
   2   1   2     2.98245   104.34002    94.32517 
   2   1   3     2.35269   518.58015   517.77635 
   2   1   4     1.90277   273.44689   264.47785 
   2   1   5     1.58305   162.68006   164.48358 
   2   1   6     1.34942  1194.99128  1186.94898 
   2   1   7     1.17315   361.68364   357.83695 
   2   2   0     3.60928  1109.78485  1145.05088 
   2   2   1     3.32572  1507.55408  1505.05746 
   2   2   2     2.75913   377.96005   369.73106 
   2   2   3     2.23831   467.05503   460.36665 
   2   2   4     1.84072   527.09470   526.87488 
   2   2   5     1.54677   209.50999   208.50851 
   2   2   6     1.32674     0.59085     0.59749 
   2   2   7     1.15816  2339.76744  2373.78745 
   2   3   0     3.03837    13.83064    13.93064 
   2   3   1     2.86333     1.78948     1.79817 
   2   3   2     2.47753   197.00267   192.71983 
   2   3   3     2.07992   497.69379   500.82689 
   2   3   4     1.74956   123.53825   122.90918 
   2   3   5     1.49149   172.62930   172.66634 
   2   3   6     1.29136   300.94028   302.75637 
   2   4   0     2.56070  1886.79339  1887.66043 
   2   4   1     2.45327     6.60406     6.61185 
   2   4   2     2.19742  2515.59920  2544.46777 
   2   4   3     1.90575   282.29017   274.89574 
   2   4   4     1.64204   691.99531   693.87785 
   2   4   5     1.42319   165.31076   167.73817 
   2   4   6     1.24626   358.66658   341.32907 
   2   5   0     2.18577    42.48153    43.12260 
   2   5   1     2.11782   108.34268   105.93200 
   2   5   2     1.94661     4.89227     5.01754 
   2   5   3     1.73515   204.83130   201.16994 
   2   5   4     1.52911     2.64651     2.62469 
   2   5   5     1.34777     9.62552     9.61152 
   2   5   6     1.19468   190.80999   179.44802 
   2   6   0     1.89409  1220.05235  1252.75237 
   2   6   1     1.84936   602.25655   600.41617 
   2   6   2     1.73206    75.38809    74.11684 
   2   6   3     1.57804     7.02111     6.85704 
   2   6   4     1.41832   286.14550   287.90974 
   2   6   5     1.27006   195.42729   191.09553 
   2   7   0     1.66484    88.10329    87.44034 
   2   7   1     1.63422    67.84912    68.69895 
   2   7   2     1.55158   129.45649   131.34427 
   2   7   3     1.43796   322.23139   331.93686 
   2   7   4     1.31401     1.83378     1.81650 
   2   7   5     1.19353   110.82834   103.63438 
   2   8   0     1.48174  2300.97839  2320.82640 
   2   8   1     1.46003     0.72389     0.73647 
   2   8   2     1.40020  2989.88242  3012.31209 
   2   8   3     1.31499    46.98876    46.73616 
   2   8   4     1.21821   995.19490  1002.11884 
   2   9   0     1.33302    25.91395    25.49803 
   2   9   1     1.31714   229.63098   228.67216 
   2   9   2     1.27272    83.69044    82.09666 
   2   9   3     1.20772    97.82038    98.37728 
   2  10   0     1.21029   784.39396   773.37846 
   2  10   1     1.19837   473.08072   458.35943 
   2  10   2     1.16462     3.94614     3.69662 
   3   0   1     2.77818  2219.14079  2204.44154 
   3   0   2     2.42174  1168.91898  1180.02828 
   3   0   3     2.04658  1208.04136  1225.25190 
   3   0   4     1.72958   111.81331   111.17344 
   3   0   5     1.47905  1373.74544  1380.79830 
   3   0   6     1.28326   921.65739   936.60065 
   3   1   1     2.71288   302.65902   278.62875 
   3   1   2     2.37813   130.59057   128.05021 
   3   1   3     2.02005   734.53088   726.56006 
   3   1   4     1.71348    97.71304    97.63255 
   3   1   5     1.46895   371.11471   371.06653 
   3   1   6     1.27664     4.47523     4.51638 
   3   2   1     2.54156    87.04986    85.35877 
   3   2   2     2.26019  1032.43360  1014.74036 
   3   2   3     1.94626  1279.44899  1311.54591 
   3   2   4     1.66775   838.44817   836.99477 
   3   2   5     1.43983  1308.31395  1362.39310 
   3   2   6     1.25739   772.84676   753.77387 
   3   3   1     2.31640   210.16426   204.92123 
   3   3   2     2.09743     6.00188     6.13341 
   3   3   3     1.83942   287.31448   286.50066 
   3   3   4     1.59904    62.69899    61.78743 
   3   3   5     1.39492   200.83446   204.40609 
   3   3   6     1.22715   184.77667   185.98251 
   3   4   1     2.08266   406.50414   407.63480 
   3   4   2     1.91920  1475.16657  1489.67386 
   3   4   3     1.71565   165.43864   164.03579 
   3   4   4     1.51572    16.16109    16.24149 
   3   4   5     1.33857   766.82845   753.41855 
   3   4   6     1.18826   877.44705   886.00220 
   3   5   1     1.86548    24.69565    24.44094 
   3   5   2     1.74528     4.93592     4.89786 
   3   5   3     1.58802   228.93218   229.98990 
   3   5   4     1.42555   554.49617   564.22864 
   3   5   5     1.27524     6.91827     6.89659 
   3   6   1     1.67416  4231.43605  4241.21087 
   3   6   2     1.58565   494.29637   497.57070 
   3   6   3     1.46494   305.26852   306.67683 
   3   6   4     1.33451   229.62964   224.73452 
   3   6   5     1.20882  3963.10146  3942.05375 
   3   7   1     1.50956    17.44895    18.02412 
   3   7   2     1.44371   420.43704   444.41793 
   3   7   3     1.35083     0.41768     0.41487 
   3   7   4     1.24654    14.97815    14.27076 
   3   8   1     1.36908   115.48731   118.36625 
   3   8   2     1.31939   997.09149   980.42405 
   3   8   3     1.24737   105.08012   100.58498 
   3   8   4     1.16386    30.87273    28.86582 
   3   9   1     1.24921     3.88974     3.74457 
   3   9   2     1.21112    41.66596    40.56597 
   3   9   3     1.15470   151.61926   141.69606 
   4   0   0     2.20289    33.72466    34.09840 
   4   0   1     2.13337  1085.79940  1083.03081 
   4   0   2     1.95866   233.06353   232.94435 
   4   0   3     1.74367     7.88106     7.82165 
   4   0   4     1.53494    83.96513    83.17072 
   4   0   5     1.35175    74.63076    73.88596 
   4   0   6     1.19745    30.01893    28.94176 
   4   1   0     2.16991    52.13470    50.83695 
   4   1   1     2.10338   195.35368   197.43134 
   4   1   2     1.93537   663.81359   673.45034 
   4   1   3     1.72718  1094.30100  1097.23216 
   4   1   4     1.52365   204.23048   206.79564 
   4   1   5     1.34402   671.23743   671.93216 
   4   1   6     1.19207   443.66625   417.69205 
   4   2   0     2.07920   720.03900   723.70642 
   4   2   1     2.02045    10.86967    10.75849 
   4   2   2     1.87019  2475.14149  2454.70580 
   4   2   3     1.68037   434.43257   427.41611 
   4   2   4     1.49123  2105.23390  2105.33521 
   4   2   5     1.32161   187.06609   186.59045 
   4   2   6     1.17634   824.75897   840.40471 
   4   3   0     1.95041    66.16700    66.40419 
   4   3   1     1.90166   104.55501   100.85727 
   4   3   2     1.77480   117.70672   118.40668 
   4   3   3     1.61016   548.13380   533.73936 
   4   3   4     1.44150    64.37227    67.67421 
   4   3   5     1.28662   232.32392   231.25880 
   4   3   6     1.15147   686.13299   624.03633 
   4   4   0     1.80464   926.13630   932.13823 
   4   4   1     1.76582  2087.67314  2115.37354 
   4   4   2     1.66286   823.38091   823.42076 
   4   4   3     1.52518   126.21150   126.74526 
   4   4   4     1.37957   570.20323   582.23229 
   4   4   5     1.24201     4.42791     4.23590 
   4   5   0     1.65780   168.61896   170.48372 
   4   5   1     1.62755    33.84856    33.58739 
   4   5   2     1.54588   189.60833   187.80288 
   4   5   3     1.43341   156.76641   160.36584 
   4   5   4     1.31054    13.57617    13.49507 
   4   5   5     1.19092     7.38045     7.08053 
   4   6   0     1.51918   420.36047   421.67064 
   4   6   1     1.49581    61.56952    62.15580 
   4   6   2     1.43167   161.09983   161.71780 
   4   6   3     1.34095   794.55441   778.77102 
   4   6   4     1.23876     1.20411     1.13821 
   4   7   0     1.39300    14.85859    15.11090 
   4   7   1     1.37491    17.93336    18.26667 
   4   7   2     1.32461    92.71085    93.37914 
   4   7   3     1.25178    62.94231    60.66853 
   4   7   4     1.16744     0.54375     0.51611 
   4   8   0     1.28035  2605.98635  2632.24210 
   4   8   1     1.26626  1467.88285  1430.49903 
   4   8   2     1.22664  3403.32878  3427.78507 
   4   8   3     1.16813   325.31299   308.74077 
   4   9   0     1.18071   301.27551   298.39958 
   4   9   1     1.16964    38.72501    36.90417 
   5   0   1     1.72611  1779.57888  1784.76275 
   5   0   2     1.62957   473.40969   470.30368 
   5   0   3     1.49937  3075.25884  3077.13542 
   5   0   4     1.36038   172.25654   175.09824 
   5   0   5     1.22795   113.39800   113.52323 
   5   1   1     1.71010   611.57532   618.65238 
   5   1   2     1.61608    29.50388    29.04209 
   5   1   3     1.48884   418.64514   420.86639 
   5   1   4     1.35250     0.03388     0.03340 
   5   1   5     1.22215    17.83187    17.68720 
   5   2   1     1.66463   629.96694   625.45147 
   5   2   2     1.57755   424.59084   414.49867 
   5   2   3     1.45855   186.17127   190.55139 
   5   2   4     1.32967    43.14926    42.87887 
   5   2   5     1.20522    16.68497    16.89289 
   5   3   1     1.59630   387.30462   389.68501 
   5   3   2     1.51902   102.99170   103.29707 
   5   3   3     1.41192   198.17490   201.08914 
   5   3   4     1.29406   134.85701   136.81070 
   5   3   5     1.17851     5.88605     5.88891 
   5   4   1     1.51338  1127.12931  1132.49329 
   5   4   2     1.44705  1764.33709  1796.08108 
   5   4   3     1.35357  2881.46449  2835.74423 
   5   4   4     1.24869    17.95111    17.27535 
   5   5   1     1.42360    99.74733   101.25546 
   5   5   2     1.36798    26.46617    27.22478 
   5   5   3     1.28819   349.91628   348.37312 
   5   5   4     1.19681    13.63486    13.08363 
   5   6   1     1.33291    49.69774    48.93110 
   5   6   2     1.28693  1211.31505  1204.06283 
   5   6   3     1.21984  1329.92063  1342.21469 
   5   7   1     1.24524   203.75761   193.99713 
   5   7   2     1.20749   185.15490   186.77825 
   5   7   3     1.15156    93.39044    84.97061 
   5   8   1     1.16281   692.41653   642.19885 
   6   0   0     1.46859   264.90126   264.93803 
   6   0   1     1.44744     0.57677     0.58588 
   6   0   2     1.38909    72.65677    74.03404 
   6   0   3     1.30578     7.63106     7.66646 
   6   0   4     1.21087   226.60044   221.60835 
   6   1   0     1.45870     9.93929    10.16935 
   6   1   1     1.43797    50.56301    52.08761 
   6   1   2     1.38071    30.49114    31.18256 
   6   1   3     1.29881    38.26644    37.70623 
   6   1   4     1.20531   125.21350   126.88638 
   6   2   0     1.43017  1177.11869  1174.00728 
   6   2   1     1.41062   950.82385   962.00012 
   6   2   2     1.35644   153.25713   156.86901 
   6   2   3     1.27855    90.53887    91.66637 
   6   2   4     1.18906   402.59648   402.28240 
   6   3   0     1.38613     0.81562     0.82882 
   6   3   1     1.36831   236.88845   243.28732 
   6   3   2     1.31870   166.84809   164.30288 
   6   3   3     1.24679    96.35549    91.92425 
   6   3   4     1.16339    11.80511    11.00843 
   6   4   0     1.33080   157.10199   155.31134 
   6   4   1     1.31500    27.83153    27.68295 
   6   4   2     1.27078     1.34056     1.31250 
   6   4   3     1.20606   129.26301   131.67248 
   6   5   0     1.26852   128.32054   125.18457 
   6   5   1     1.25481    30.09926    28.89186 
   6   5   2     1.21622    74.12048    73.74817 
   6   5   3     1.15913   459.85919   455.71227 
   6   6   0     1.20309  2113.98709  2096.90686 
   6   6   1     1.19138  1053.95125  1001.99297 
   6   6   2     1.15820  1033.58704  1048.41626 
   7   0   1     1.24540   460.89884   438.59918 
   7   0   2     1.20764     0.01387     0.01397 
   7   0   3     1.15169     0.11096     0.10101 
   7   1   1     1.23935    95.45207    90.36037 
   7   1   2     1.20212    35.15219    34.75499 
   7   2   1     1.22171    65.85877    65.41744 
   7   2   2     1.18601  1074.20543  1102.36842 
   7   3   1     1.19391   262.89357   245.99609 
   7   3   2     1.16053     4.30727     4.03699 
   7   4   1     1.15801  4627.02131  4697.27406 