data_d6_MAPbI3_190K
_chemical_name_common           'd6-methylammonium lead iodide'
_chemical_formula_sum            'C H0.378 D5.622 I3 N Pb'
_chemical_formula_moiety         'I3 Pb, (C H0.19 D2.81), (H0.19 D2.81 N)'
_chemical_formula_weight         625.9
_exptl_crystal_colour            black
_exptl_crystal_description       powder
_publ_requested_journal          'Nature Communications'
_publ_section_title
; Structures and Phase Transitions of the Organic-Inorganic Hybrid 
 Perovskite Methyl Ammonium Lead Iodide
;
_publ_contact_author             'Pamela Whitfield'
_publ_contact_author_email       whitfieldps@ornl.gov
loop_
_publ_author_name        
'Whitfield, P.S.'
'Herron, N'
'Giuse, N'
'Page, K'
'Cheng, Y.Q.'
'Milas, I'
'Crawford, M.K.'
_diffrn_ambient_temperature      190
_cell_measurement_temperature    190
_pd_spec_mounting                '8mm diameter vanadium can'
_pd_spec_mount_mode              transmission
_pd_spec_shape                   cylinder
_cell_measurement_reflns_used    1158  
_diffrn_source                   'spallation source'
_diffrn_radiation_type           neutron
_diffrn_detector                 '6Li scintillation wavelength-shifting fibre'
_diffrn_measurement_device_type  'time-of-flight neutron powder diffractometer'
_pd_instr_location               'POWGEN diffractometer, SNS, ORNL (USA)'
_pd_meas_scan_method             tof
_pd_instr_dist_src/spec          60000
_pd_instr_dist_spec/detc         3000 #distance for 90deg detectors
# detector distances increase from 2.5 metres at backscattering to 
#  4.5 metres at forward scattering
_pd_meas_2theta_fixed            90 #data from all detectors focussed at 90deg 
_diffrn_measurement_method       'neutron time-event mode'
loop_
_diffrn_radiation_wavelength     
1.066
2.665
# 1 Angstrom bandwith with centre wavelengths of 1.066 and 2.665 Angstrom
loop_
_atom_type_symbol
_atom_type_scat_length_neutron
_atom_type_scat_source
C 0.6646 International_Tables_Vol_C
N 0.9360 International_Tables_Vol_C
Pb 0.9405 International_Tables_Vol_C
I 0.528 International_Tables_Vol_C
H -0.3739 International_Tables_Vol_C
D 0.6671 International_Tables_Vol_C
_diffrn_reflns_number            1158
_reflns_number_total             1158
_reflns_number_gt                ?
_reflns_threshold_expression     ?
_diffrn_reflns_theta_max         ?
_diffrn_reflns_limit_h_min       0
_diffrn_reflns_limit_h_max       15
_diffrn_reflns_limit_k_min       0
_diffrn_reflns_limit_k_max       14
_diffrn_reflns_limit_l_min       0
_diffrn_reflns_limit_l_max       22
_diffrn_standards_number         ?
_diffrn_standards_interval_count ?
_diffrn_standards_interval_time  ?
_diffrn_standards_decay_%        ?
_pd_proc_ls_special_details      
; co-refinement of 2 datasets with centre wavelengths 1.066 and 2.665A
  methylammonium modelled via a z-matrix. Bond lengths and C-N
  torsions refined. 8-fold disorder as MA also disordered end-to-end 
  methylammonium ADPs restrained via a TLS restraint
  Pb occupancy and H/D ratio fixed at value from 10 K refinement
  Pb occupancy >1 presence of radiogenic Pb isotopes 
;
_computing_structure_solution    'TOPAS'
_computing_data_collection       'SNS pyDAS'
_computing_cell_refinement       'TOPAS'
_computing_data_reduction        'Mantid'
_pd_proc_ls_profile_function     'back-to-back exponentials with pseudo-Voigt'
_pd_proc_ls_background_function  'Chebychev polynomial with sinQ/Q function'
_refine_ls_structure_factor_coef Inet
_refine_ls_matrix_type           full
_refine_ls_weighting_scheme      'sigma'
_refine_ls_weighting_details
'w = 1/sigma\^2'
_refine_diff_density_max         ?
_refine_diff_density_min         ?
_refine_ls_number_reflns         1158
_pd_proc_ls_prof_wR_factor       0.0196
_refine_ls_wR_factor_ref         0.0196
_refine_ls_R_factor_gt           ?
_refine_ls_goodness_of_fit_all   2.52
_refine_ls_goodness_of_fit_ref   2.52
_refine_ls_hydrogen_treatment    refall
_refine_ls_number_parameters     73
_refine_ls_shift/su_max          0.47346
_refine_ls_number_restraints     1
_restr_U_rigid_details           'TLS restraint for methylammonium'
_refine_ls_number_constraints    3
loop_
_atom_site_constraints
'Pb occupancy fixed to value from 10K refinement'
'D/H ratios fixed to value from 10K refinement'
'50:50 C:N disorder'           
_cell_length_a                   8.79948(6)
_cell_length_b                   8.79948(6)
_cell_length_c                   12.68821(11)
_cell_angle_alpha                90
_cell_angle_beta                 90
_cell_angle_gamma                90
_cell_volume                     982.459(16)
_space_group_crystal_system      tetragonal
_symmetry_space_group_name_H-M  'I 4/m c m'
_symmetry_space_group_name_Hall  '-I 4 2c'
_symmetry_Int_Tables_number      140
_cell_formula_units_Z            4
_exptl_crystal_density_diffrn    4.232 
_exptl_absorpt_coefficient_mu    0
_exptl_absorpt_correction_type   cylinder
_exptl_absorpt_process_details  
'Lobanov, 6th EPDIC, Abstract.P12-16, Aug.22-25, 1998'
loop_
_symmetry_equiv_pos_as_xyz
	 'x, y, z '
	 '-x, -y, z '
	 '-x, y, -z+1/2 '
	 '-x, y, z+1/2 '
	 '-y, -x, -z+1/2 '
	 '-y, -x, z+1/2 '
	 '-y, x, -z '
	 '-y, x, z '
	 'y, -x, -z '
	 'y, -x, z '
	 'y, x, -z+1/2 '
	 'y, x, z+1/2 '
	 'x, -y, -z+1/2 '
	 'x, -y, z+1/2 '
	 'x, y, -z '
	 '-x, -y, -z '
	 'x+1/2, y+1/2, z+1/2 '
	 '-x+1/2, -y+1/2, z+1/2 '
	 '-x+1/2, y+1/2, -z '
	 '-x+1/2, y+1/2, z '
	 '-y+1/2, -x+1/2, -z '
	 '-y+1/2, -x+1/2, z '
	 '-y+1/2, x+1/2, -z+1/2 '
	 '-y+1/2, x+1/2, z+1/2 '
	 'y+1/2, -x+1/2, -z+1/2 '
	 'y+1/2, -x+1/2, z+1/2 '
	 'y+1/2, x+1/2, -z '
	 'y+1/2, x+1/2, z '
	 'x+1/2, -y+1/2, -z '
	 'x+1/2, -y+1/2, z '
	 'x+1/2, y+1/2, -z+1/2 '
	 '-x+1/2, -y+1/2, -z+1/2 '
loop_
_atom_site_label
_atom_site_type_symbol
_atom_site_fract_x
_atom_site_fract_y
_atom_site_fract_z
_atom_site_occupancy
_atom_site_symmetry_multiplicity
_atom_site_adp_type
_atom_site_U_iso_or_equiv
Pb1 Pb 0 0 0 1.011   4 Biso 0
I2 I 0.20131(11) 0.29869(11) 0 1   8 Biso 0
I1 I 0 0 0.25 1   4 Biso 0
N1 N 0.5795(3) -0.0795(3) 0.2132(4) 0.125  16 Biso 0
N1 C 0.5795(3) -0.0795(3) 0.2132(4) 0.125  16 Biso 0
C2 N 0.4734(3) 0.0266(3) 0.2680(4) 0.125  16 Biso 0
C2 C 0.4734(3) 0.0266(3) 0.2680(4) 0.125  16 Biso 0
D1 D 0.4497(6) 0.1118(5) 0.2217(6) 0.117125  32 Biso 0
D1 H 0.4497(6) 0.1118(5) 0.2217(6) 0.007875  32 Biso 0
D2 D 0.3799(5) -0.0271(4) 0.2861(6) 0.117125  32 Biso 0
D2 H 0.3799(5) -0.0271(4) 0.2861(6) 0.007875  32 Biso 0
D3 D 0.5212(6) 0.0645(8) 0.3323(5) 0.117125  32 Biso 0
D3 H 0.5212(6) 0.0645(8) 0.3323(5) 0.007875  32 Biso 0
D4 D 0.6775(5) -0.0298(5) 0.2030(8) 0.117125  32 Biso 0
D4 H 0.6775(5) -0.0298(5) 0.2030(8) 0.007875  32 Biso 0
D5 D 0.5933(9) -0.1708(6) 0.2558(7) 0.117125  32 Biso 0
D5 H 0.5933(9) -0.1708(6) 0.2558(7) 0.007875  32 Biso 0
D6 D 0.5372(8) -0.1075(10) 0.1448(5) 0.117125  32 Biso 0
D6 H 0.5372(8) -0.1075(10) 0.1448(5) 0.007875  32 Biso 0
loop_
_atom_site_aniso_label
_atom_site_aniso_U_11
_atom_site_aniso_U_22
_atom_site_aniso_U_33
_atom_site_aniso_U_12
_atom_site_aniso_U_13
_atom_site_aniso_U_23
Pb1 0.0232(6) 0.0232(6) 0.0229(9) 0 0 0
I2 0.0367(8) 0.0367(8) 0.0566(12) -0.0210(8) 0 0
I1 0.0532(11) 0.0532(11) 0.0127(13) 0 0 0
N1 0.036(6) 0.025(5) 0.032(4) 0.006(3) 0.017(5) -0.005(4)
N1 0.036(6) 0.025(5) 0.032(4) 0.006(3) 0.017(5) -0.005(4)
C2 0.085(8) 0.081(10) 0.055(9) 0.051(6) 0.015(13) -0.025(10)
C2 0.085(8) 0.081(10) 0.055(9) 0.051(6) 0.015(13) -0.025(10)
D1 0.216(16) 0.074(10) 0.17(2) 0.106(11) -0.02(3) -0.008(15)
D1 0.216(16) 0.074(10) 0.17(2) 0.106(11) -0.02(3) -0.008(15)
D2 0.050(7) 0.23(2) 0.132(16) 0.053(8) 0.046(10) -0.01(2)
D2 0.050(7) 0.23(2) 0.132(16) 0.053(8) 0.046(10) -0.01(2)
D3 0.192(18) 0.166(16) 0.069(8) 0.039(14) 0.01(2) -0.087(9)
D3 0.192(18) 0.166(16) 0.069(8) 0.039(14) 0.01(2) -0.087(9)
D4 0.058(7) 0.101(13) 0.097(10) -0.026(5) 0.051(7) 0.003(15)
D4 0.058(7) 0.101(13) 0.097(10) -0.026(5) 0.051(7) 0.003(15)
D5 0.058(13) 0.036(6) 0.129(12) 0.016(5) -0.004(18) 0.031(8)
D5 0.058(13) 0.036(6) 0.129(12) 0.016(5) -0.004(18) 0.031(8)
D6 0.130(13) 0.093(12) 0.045(5) 0.013(11) 0.001(9) -0.048(7)
D6 0.130(13) 0.093(12) 0.045(5) 0.013(11) 0.001(9) -0.048(7)
loop_
	_geom_bond_atom_site_label_1
	_geom_bond_atom_site_label_2
	_geom_bond_distance
	_geom_bond_site_symmetry_1
	_geom_bond_site_symmetry_2
	Pb1       I2        3.1695(2) 1_555   1_555
	Pb1       I1        3.17205(3) 1_555   1_555
	C2        N1        1.493(4) 1_555   1_555
	D1        C2        0.976(3) 1_555   1_555
	D2        C2        0.976(3) 1_555   1_555
	D3        C2        0.976(3) 1_555   1_555
	D4        N1        0.976(3) 1_555   1_555
	D5        N1        0.976(3) 1_555   1_555
	D6        N1        0.976(3) 1_555   1_555
	loop_
		_geom_angle_atom_site_label_1
		_geom_angle_atom_site_label_2
		_geom_angle_atom_site_label_3
		_geom_angle
		_geom_angle_site_symmetry_1
		_geom_angle_site_symmetry_2
		_geom_angle_site_symmetry_3
	Pb1       I1        Pb1        157.99(6)   1_555 1_555   2_555
	Pb1       I2        Pb1        180.000     1_555 1_555   2_555
	D5        N1        D4         109.44(12)  1_555 1_555   1_555
	D6        N1        D5         109.44(12)  1_555 1_555   1_555
	D6        N1        D4         109.44(12)  1_555 1_555   1_555
	C2        N1        D6         109.50(12)  1_555 1_555   1_555
	C2        N1        D5         109.50(12)  1_555 1_555   1_555
	C2        N1        D4         109.50(12)  1_555 1_555   1_555
	D1        C2        D2         109.44(12)  1_555 1_555   1_555
	D3        C2        D1         109.44(12)  1_555 1_555   1_555
	D3        C2        D2         109.44(12)  1_555 1_555   1_555

data_d6_MAPbI3_190K_p_01
_diffrn_radiation_wavelength     1.066
# 1 Angstrom bandwith with centre wavelengths of 1.066 Angstrom
loop_
_refln_index_h
_refln_index_k
_refln_index_l
_refln_d_spacing
_refln_F_squared_calc
_refln_F_squared_meas
   0   0   4     3.17205  2740.32059  2787.31401 
   0   0   6     2.11470   133.41356   133.04958 
   0   0   8     1.58603   770.44825   783.42913 
   0   0  10     1.26882    84.00961    83.30651 
   0   0  12     1.05735   217.70930   217.89102 
   0   0  14     0.90630   164.23069   165.69792 
   0   0  16     0.79301    66.78179    64.62180 
   0   0  18     0.70490    13.95118    14.23832 
   0   0  20     0.63441    73.40972    73.00754 
   0   0  22     0.57674     0.09716     0.09705 
   1   1   4     2.82601    77.22162    79.83467 
   1   1   6     2.00222   107.46943   105.01701 
   1   1   8     1.53688   754.14995   769.43006 
   1   1  10     1.24324    70.51903    69.12083 
   1   1  12     1.04241  1037.27475  1027.93685 
   1   1  14     0.89684    52.75967    53.04208 
   1   1  16     0.78665   772.49968   750.77161 
   1   1  18     0.70042     0.47274     0.48019 
   1   1  20     0.63114   234.48703   234.52876 
   1   1  22     0.57428     0.00278     0.00277 
   2   0   2     3.61539  2922.57650  3066.56136 
   2   0   4     2.57305   878.59054   858.41913 
   2   0   6     1.90597    51.11004    49.71147 
   2   0   8     1.49204   437.31391   446.62141 
   2   0  10     1.21914    41.49752    41.71075 
   2   0  12     1.02808   209.31052   213.47089 
   2   0  14     0.88766    43.97078    44.43453 
   2   0  16     0.78044   139.36471   137.23924 
   2   0  18     0.69602     1.28479     1.30329 
   2   0  20     0.62792   175.75215   176.96582 
   2   0  22     0.57184     0.48301     0.48156 
   2   1   1     3.75862   117.66180   121.84539 
   2   1   3     2.88102  1525.33481  1550.33950 
   2   1   5     2.13267     0.08655     0.08791 
   2   1   7     1.64635   595.09358   601.92113 
   2   1   9     1.32720    23.71575    23.61570 
   2   1  11     1.10690   215.24450   211.25946 
   2   1  13     0.94731     9.70824     9.91279 
   2   1  15     0.82699    10.46533    10.34622 
   2   1  17     0.73329    35.48044    35.73569 
   2   1  19     0.65839     1.55440     1.55308 
   2   1  21     0.59720     8.03638     8.03739 
   2   2   0     3.11109  2823.05033  2775.00103 
   2   2   2     2.79330   211.37701   213.32534 
   2   2   4     2.22111  2721.49973  2672.46195 
   2   2   6     1.74892   551.25158   553.61655 
   2   2   8     1.41300  2207.75222  2204.14223 
   2   2  10     1.17487   138.90802   135.50747 
   2   2  12     1.00111   982.62916  1003.67051 
   2   2  14     0.87013   160.69790   163.18240 
   2   2  16     0.76844   412.33358   410.05470 
   2   2  18     0.68747    26.46094    26.54505 
   2   2  20     0.62162   215.46681   218.41769 
   2   2  22     0.56707     1.30671     1.30821 
   3   1   0     2.78264  1094.96543  1091.65556 
   3   1   2     2.54829   947.93456   932.19087 
   3   1   4     2.09183  3567.65543  3496.03798 
   3   1   6     1.68368   379.91839   385.47309 
   3   1   8     1.37792  1926.03090  1919.93094 
   3   1  10     1.15447   412.82788   408.62586 
   3   1  12     0.98840  1522.74241  1550.48493 
   3   1  14     0.86175    41.00739    41.14909 
   3   1  16     0.76265   958.58365   951.32699 
   3   1  18     0.68332     9.02238     9.09750 
   3   1  20     0.61854   454.58314   456.40485 
   3   1  22     0.56473     0.38417     0.38095 
   3   2   1     2.39661   660.54343   664.53118 
   3   2   3     2.11385   483.92310   481.83203 
   3   2   5     1.75905  1264.73040  1265.14611 
   3   2   7     1.45516    58.18504    58.86040 
   3   2   9     1.22076   316.17874   318.98243 
   3   2  11     1.04286    42.98126    42.65614 
   3   2  13     0.90623    74.93944    75.60245 
   3   2  15     0.79924    26.52163    25.91907 
   3   2  17     0.71373    28.39447    28.68416 
   3   2  19     0.64412    44.29920    43.91743 
   3   2  21     0.58649    10.98198    10.93563 
   3   3   0     2.07406   301.77787   294.88103 
   3   3   2     1.97138    76.88740    75.62059 
   3   3   4     1.73592   303.63189   305.90185 
   3   3   6     1.48074    15.94515    16.08881 
   3   3   8     1.25988   111.07602   110.71601 
   3   3  10     1.08235    27.90829    27.70377 
   3   3  12     0.94200   241.83111   246.88045 
   3   3  14     0.83048     1.62202     1.59245 
   3   3  16     0.74072   271.15477   274.12091 
   3   3  18     0.66741     1.10054     1.10015 
   3   3  20     0.60666   188.53637   188.24325 
   4   0   0     2.19987   555.04044   544.78180 
   4   0   2     2.07846   735.11550   720.00381 
   4   0   4     1.80769  1201.59593  1176.69534 
   4   0   6     1.52454   277.63590   279.80285 
   4   0   8     1.28653  1384.20019  1383.18785 
   4   0  10     1.09911    65.43359    64.23880 
   4   0  12     0.95299   888.21478   902.55782 
   4   0  14     0.83797    22.57667    22.43407 
   4   0  16     0.74602   446.31915   447.87775 
   4   0  18     0.67128     9.21794     9.23365 
   4   0  20     0.60957   189.70352   190.75976 
   4   1   1     2.10462  1421.60909  1405.91362 
   4   1   3     1.90535   112.91267   109.81241 
   4   1   5     1.63334  1594.01755  1574.84485 
   4   1   7     1.38156   146.04190   145.91199 
   4   1   9     1.17632   580.18975   568.33241 
   4   1  11     1.01475    44.08495    44.73379 
   4   1  13     0.88760   139.75318   141.22307 
   4   1  15     0.78637    67.15615    65.24100 
   4   1  17     0.70452     0.03176     0.03238 
   4   1  19     0.63733    31.37090    31.51247 
   4   1  21     0.58135     0.42090     0.42023 
   4   2   0     1.96762   302.28035   295.91540 
   4   2   2     1.87931   180.75871   178.90931 
   4   2   4     1.67206  1251.56129  1253.61519 
   4   2   6     1.44051     2.01483     2.03939 
   4   2   8     1.23482  1756.76232  1749.01356 
   4   2  10     1.06634     1.35719     1.35651 
   4   2  12     0.93139  1094.12381  1119.45772 
   4   2  14     0.82318     4.24776     4.19653 
   4   2  16     0.73552   552.79087   552.95580 
   4   2  18     0.66360    16.75658    16.67275 
   4   2  20     0.60380   257.89780   258.24177 
   4   3   1     1.74321    26.69152    26.88746 
   4   3   3     1.62484  1543.76224  1520.09891 
   4   3   5     1.44615    20.92057    21.24762 
   4   3   7     1.26266   554.71105   550.04825 
   4   3   9     1.10029     4.39704     4.33593 
   4   3  11     0.96473   342.29111   347.03863 
   4   3  13     0.85354     1.51211     1.52063 
   4   3  15     0.76239     1.33362     1.32091 
   4   3  17     0.68713    98.56074    98.70436 
   4   3  19     0.62436    22.22218    22.39274 
   4   3  21     0.57146    23.98350    23.92414 
   4   4   0     1.55554   555.50361   567.03488 
   4   4   2     1.51079   247.25982   244.94457 
   4   4   4     1.39665  1566.60980  1566.07968 
   4   4   6     1.25305    44.03053    44.07219 
   4   4   8     1.11056  1153.47170  1125.25585 
   4   4  10     0.98322    81.71679    83.61122 
   4   4  12     0.87446   500.08085   503.15772 
   4   4  14     0.78308    80.68168    79.04141 
   4   4  16     0.70650   173.52410   177.10426 
   4   4  18     0.64205    53.37740    53.18491 
   4   4  20     0.58743    93.64397    93.80348 
   5   1   0     1.72572  1104.87927  1111.24976 
   5   1   2     1.66521     1.58707     1.60554 
   5   1   4     1.51590  1192.71648  1185.78869 
   5   1   6     1.33702   127.64562   127.12907 
   5   1   8     1.16776   698.08549   670.95816 
   5   1  10     1.02225   154.01685   156.69017 
   5   1  12     0.90158   418.59334   421.87354 
   5   1  14     0.80238   123.11686   118.92131 
   5   1  16     0.72057   379.16281   386.12684 
   5   1  18     0.65256    11.45237    11.29166 
   5   1  20     0.59545   265.07236   264.03418 
   5   2   1     1.62064   103.75342   102.87611 
   5   2   3     1.52422   247.28830   249.40471 
   5   2   5     1.37384   272.23517   269.63460 
   5   2   7     1.21367    72.65086    71.55598 
   5   2   9     1.06742    93.74630    93.48089 
   5   2  11     0.94234    36.90300    37.67449 
   5   2  13     0.83792     3.97023     3.94566 
   5   2  15     0.75120    19.75681    19.84269 
   5   2  17     0.67890    27.17383    27.38245 
   5   2  19     0.61817    17.66853    17.77568 
   5   2  21     0.56670     5.86824     5.87592 
   5   3   0     1.50910  2067.38774  2049.87068 
   5   3   2     1.46813  1739.67062  1758.31742 
   5   3   4     1.36274  2650.68794  2632.07825 
   5   3   6     1.22839  1749.58837  1719.73758 
   5   3   8     1.09328  1932.51862  1906.93477 
   5   3  10     0.97117   643.81949   659.39625 
   5   3  12     0.86595  1335.93985  1354.35859 
   5   3  14     0.77696   149.20211   146.96247 
   5   3  16     0.70199   891.24204   901.24222 
   5   3  18     0.63866     7.00980     6.99770 
   5   3  20     0.58483   375.25949   373.42528 
   5   4   1     1.36626     7.78881     7.69108 
   5   4   3     1.30698    59.43618    58.62793 
   5   4   5     1.20843    17.17710    17.06542 
   5   4   7     1.09509    28.28354    27.69245 
   5   4   9     0.98407    43.90344    45.03660 
   5   4  11     0.88350    39.87349    40.18038 
   5   4  13     0.79574     0.22271     0.21816 
   5   4  15     0.72036    25.17710    25.61979 
   5   4  17     0.65588    33.40383    33.20230 
   5   4  19     0.60064    15.63694    15.51421 
   5   5   0     1.24443     5.32260     5.20059 
   5   5   2     1.22116     2.39935     2.41927 
   5   5   4     1.15847    21.82278    21.11385 
   5   5   6     1.07251     9.14920     9.19236 
   5   5   8     0.97904   176.89057   179.91004 
   5   5  10     0.88844    42.79568    43.31777 
   5   5  12     0.80577   337.52657   329.04962 
   5   5  14     0.73261    49.79521    50.27494 
   5   5  16     0.66877   331.47949   330.99084 
   5   5  18     0.61334    13.22153    13.36243 
   5   5  20     0.56520   108.61924   108.00864 
   6   0   0     1.46658   325.18625   329.09037 
   6   0   2     1.42890   501.56626   505.03263 
   6   0   4     1.33119   926.45060   922.76841 
   6   0   6     1.20513   182.82208   180.40555 
   6   0   8     1.07678   903.32979   914.59348 
   6   0  10     0.95955    29.15194    29.55019 
   6   0  12     0.85768   859.78290   864.01772 
   6   0  14     0.77097     0.62242     0.61796 
   6   0  16     0.69757   369.34468   376.66407 
   6   0  18     0.63532     4.89879     4.87180 
   6   0  20     0.58227   155.45219   155.11400 
   6   1   1     1.43731   493.16581   497.87441 
   6   1   3     1.36877   968.70654   955.40968 
   6   1   5     1.25676   239.12609   239.77098 
   6   1   7     1.13068   487.83958   476.84924 
   6   1   9     1.00965   147.21950   151.08422 
   6   1  11     0.90187   149.58182   150.71457 
   6   1  13     0.80909    78.51954    76.23962 
   6   1  15     0.73021     9.24633     9.36323 
   6   1  17     0.66329    32.57913    32.44595 
   6   1  19     0.60632     0.53495     0.53454 
   6   2   0     1.39132   594.98838   600.07120 
   6   2   2     1.35902   120.69260   119.49106 
   6   2   4     1.27414  1499.18465  1475.46590 
   6   2   6     1.16232    44.63050    43.25255 
   6   2   8     1.04592  1202.01961  1216.00413 
   6   2  10     0.93751    21.94759    22.48198 
   6   2  12     0.84184   998.35391   986.60225 
   6   2  14     0.75940    12.48113    12.40754 
   6   2  16     0.68896   416.78025   423.31414 
   6   2  18     0.62880    21.66909    21.98597 
   6   2  20     0.57723   227.83412   227.95473 
   6   3   1     1.30480   365.24092   361.90411 
   6   3   3     1.25287   100.03342   100.09752 
   6   3   5     1.16527   300.17799   289.31347 
   6   3   7     1.06267    90.51551    90.00597 
   6   3   9     0.96034   136.44838   138.58241 
   6   3  11     0.86621    39.01376    39.57376 
   6   3  13     0.78304     5.23330     5.12735 
   6   3  15     0.71089    69.73497    70.61002 
   6   3  17     0.64871     3.76936     3.71980 
   6   3  19     0.59512    14.25947    14.21246 
   6   4   0     1.22027   793.63670   800.54624 
   6   4   2     1.19830    25.42008    25.26225 
   6   4   4     1.13890  1361.02776  1344.24864 
   6   4   6     1.05693   101.51644   101.61185 
   6   4   8     0.96714   637.32090   653.69639 
   6   4  10     0.87952   221.39653   223.83868 
   6   4  12     0.79910   283.03143   276.72817 
   6   4  14     0.72758   239.41728   242.64095 
   6   4  16     0.66494   102.28511   102.44635 
   6   4  18     0.61038    89.90045    90.65045 
   6   4  20     0.56288   141.20861   139.93432 
   6   5   1     1.12224    20.51106    20.22226 
   6   5   3     1.08869     3.28011     3.23195 
   6   5   5     1.02973    47.64137    48.29090 
   6   5   7     0.95688     0.02027     0.02058 
   6   5   9     0.88013     2.09670     2.12274 
   6   5  11     0.80598     0.00012     0.00012 
   6   5  13     0.73770    21.37055    21.50515 
   6   5  15     0.67645    12.21363    12.37082 
   6   5  17     0.62222     9.45486     9.59292 
   6   5  19     0.57447     2.31963     2.30991 
   6   6   0     1.03703   660.17686   672.30190 
   6   6   2     1.02345   101.75718   103.33531 
   6   6   4     0.98569   811.62364   830.30957 
   6   6   6     0.93110   308.12936   315.13597 
   6   6   8     0.86796   236.97923   240.59468 
   6   6  10     0.80296   405.96168   391.96189 
   6   6  12     0.74037    46.53658    47.03820 
   6   6  14     0.68242   302.25035   304.76263 
   6   6  16     0.62994    23.02290    23.19926 
   6   6  18     0.58297    58.18098    58.01340 
   7   1   0     1.24443  1227.72597  1199.58296 
   7   1   2     1.22116   213.78223   215.55702 
   7   1   4     1.15847  1860.38794  1799.95228 
   7   1   6     1.07251   295.27952   296.67252 
   7   1   8     0.97904  1006.60832  1023.79081 
   7   1  10     0.88844   448.01538   453.48104 
   7   1  12     0.80577   354.11607   345.22247 
   7   1  14     0.73261   203.49855   205.45905 
   7   1  16     0.66877   347.47838   346.96615 
   7   1  18     0.61334    40.52914    40.96105 
   7   1  20     0.56520   168.69785   167.74952 
   7   2   1     1.20325    82.07001    80.95180 
   7   2   3     1.16217   105.20301   101.92890 
   7   2   5     1.09124    90.62025    89.33193 
   7   2   7     1.00562    14.93996    15.08003 
   7   2   9     0.91762    95.12046    96.27838 
   7   2  11     0.83447     0.02867     0.02843 
   7   2  13     0.75936    56.19361    55.87760 
   7   2  15     0.69303     1.62989     1.64040 
   7   2  17     0.63505     9.17684     9.13044 
   7   2  19     0.58452     0.29645     0.29523 
   7   3   0     1.15543   101.18067    99.72659 
   7   3   2     1.13673    57.56070    56.38782 
   7   3   4     1.08565   282.08378   278.80177 
   7   3   6     1.01395    16.53195    16.78544 
   7   3   8     0.93389   411.93275   418.11772 
   7   3  10     0.85429    19.76871    19.91390 
   7   3  12     0.78003   379.63533   373.89450 
   7   3  14     0.71310     0.84013     0.85185 
   7   3  16     0.65383   394.11901   389.51069 
   7   3  18     0.60176     1.86767     1.84988 
   7   4   1     1.08743   114.66318   113.18139 
   7   4   3     1.05682   352.34063   352.63905 
   7   4   5     1.00264     7.69843     7.81227 
   7   4   7     0.93502   290.68150   295.58415 
   7   4   9     0.86303     1.06892     1.07705 
   7   4  11     0.79279   138.56108   134.03269 
   7   4  13     0.72755     1.83133     1.85632 
   7   4  15     0.66859    38.80327    38.70217 
   7   4  17     0.61609     0.19162     0.19413 
   7   4  19     0.56963     1.59423     1.59687 
   7   5   0     1.02292   625.72047   636.41773 
   7   5   2     1.00988  1760.13230  1808.88660 
   7   5   4     0.97355  1644.96556  1684.59672 
   7   5   6     0.92085   616.78725   628.18810 
   7   5   8     0.85964  1899.69658  1889.05279 
   7   5  10     0.79635   104.83337   102.93488 
   7   5  12     0.73518  1500.30022  1496.40343 
   7   5  14     0.67835     0.38971     0.39299 
   7   5  16     0.62674   757.49377   755.12133 
   7   5  18     0.58043     9.36984     9.36398 
   7   6   1     0.95175   114.60296   116.14555 
   7   6   3     0.93103     5.96602     6.10069 
   7   6   5     0.89334   143.33767   144.07177 
   7   6   7     0.84452     7.72249     7.64080 
   7   6   9     0.79035    58.11589    55.84489 
   7   6  11     0.73534     0.01057     0.01055 
   7   6  13     0.68239    36.15241    36.45477 
   7   6  15     0.63304     0.00944     0.00943 
   7   6  17     0.58794     4.15419     4.17005 
   7   7   0     0.88888     2.98881     3.02815 
   7   7   2     0.88028    49.87432    50.49631 
   7   7   4     0.85591    22.49671    22.62664 
   7   7   6     0.81944     2.31861     2.26706 
   7   7   8     0.77541   193.38006   189.42602 
   7   7  10     0.72801    33.90371    34.30882 
   7   7  12     0.68040   282.63501   283.86280 
   7   7  14     0.63460    21.37275    21.25984 
   7   7  16     0.59175   131.40681   130.19680 
   8   0   0     1.09994     7.87632     7.75528 
   8   0   2     1.08377    38.49750    38.13608 
   8   0   4     1.03923    46.42244    46.47526 
   8   0   6     0.97583     7.08358     7.22429 
   8   0   8     0.90385   198.35882   199.77220 
   8   0  10     0.83111     8.55960     8.38402 
   8   0  12     0.76227   255.62344   252.94106 
   8   0  14     0.69945     1.47706     1.50859 
   8   0  16     0.64326   104.34040   103.67950 
   8   0  18     0.59349     2.32719     2.31769 
   8   1   1     1.08743   162.13582   160.04055 
   8   1   3     1.05682   218.91085   219.09626 
   8   1   5     1.00264    55.79726    56.62235 
   8   1   7     0.93502   214.83234   218.45572 
   8   1   9     0.86303     5.86012     5.90467 
   8   1  11     0.79279   103.32114    99.94444 
   8   1  13     0.72755     2.12995     2.15902 
   8   1  15     0.66859    14.90725    14.86841 
   8   1  17     0.61609     3.75732     3.80651 
   8   1  19     0.56963     0.08509     0.08524 
   8   2   0     1.06709   859.44196   857.93619 
   8   2   2     1.05231   843.27219   837.52833 
   8   2   4     1.01140  1499.48008  1539.81689 
   8   2   6     0.95268   588.64024   597.76578 
   8   2   8     0.88536  1300.18608  1321.62117 
   8   2  10     0.81667   177.69774   173.60995 
   8   2  12     0.75108   809.45567   812.88753 
   8   2  14     0.69078   146.06601   148.36550 
   8   2  16     0.63650   286.03860   285.57423 
   8   2  18     0.58816    35.80269    35.94540 
   8   3   1     1.02653   197.53696   200.94580 
   8   3   3     1.00066     3.50510     3.58018 
   8   3   5     0.95430   457.14061   464.21076 
   8   3   7     0.89545    28.16015    28.34025 
   8   3   9     0.83163   340.85141   333.62996 
   8   3  11     0.76824    21.33067    21.18893 
   8   3  13     0.70843    78.73230    79.79724 
   8   3  15     0.65367     0.44723     0.44164 
   8   3  17     0.60435     0.65978     0.66248 
   8   4   0     0.98381   628.03173   643.87596 
   8   4   2     0.97219    55.21551    56.60196 
   8   4   4     0.93966   841.08404   860.47148 
   8   4   6     0.89201   172.95920   174.55388 
   8   4   8     0.83603   460.77839   460.01784 
   8   4  10     0.77748   183.29187   181.25092 
   8   4  12     0.72026   196.28108   199.66377 
   8   4  14     0.66657   199.93469   200.44525 
   8   4  16     0.61741   104.87527   106.03738 
   8   4  18     0.57300    32.13363    32.09764 
   8   5   1     0.93023     7.32937     7.47763 
   8   5   3     0.91086   213.43363   215.57957 
   8   5   5     0.87548    26.71436    26.86335 
   8   5   7     0.82938   199.60933   197.07215 
   8   5   9     0.77790    22.62007    22.40891 
   8   5  11     0.72528    82.45110    84.21615 
   8   5  13     0.67433     2.19929     2.20059 
   8   5  15     0.62659     3.66865     3.65586 
   8   5  17     0.58276     1.97803     1.97308 
   8   6   0     0.87995   361.00447   365.42239 
   8   6   2     0.87160     7.38288     7.51971 
   8   6   4     0.84793   367.21112   365.66990 
   8   6   6     0.81242    66.32475    64.67729 
   8   6   8     0.76946    92.86826    92.71760 
   8   6  10     0.72308   203.65368   205.29863 
   8   6  12     0.67637    20.36690    20.62148 
   8   6  14     0.63133   179.36868   179.40499 
   8   6  16     0.58909    52.18604    52.18658 
   8   7   1     0.82603     0.00283     0.00281 
   8   7   3     0.81237     0.26633     0.25970 
   8   7   5     0.78697     2.67056     2.59574 
   8   7   7     0.75298     3.41388     3.42524 
   8   7   9     0.71383     0.31848     0.32157 
   8   7  11     0.67253     0.35103     0.35126 
   8   7  13     0.63131     0.37450     0.37457 
   8   7  15     0.59163     0.27193     0.26939 
   8   8   0     0.77777   274.01109   271.34934 
   8   8   2     0.77199   316.88728   315.46042 
   8   8   4     0.75540   364.21059   367.11979 
   8   8   6     0.72997   358.57391   362.84885 
   8   8   8     0.69832   160.87255   164.71584 
   8   8  10     0.66310   254.94595   254.01115 
   8   8  12     0.62653    78.52126    78.23927 
   8   8  14     0.59022    87.81721    87.31945 
   9   1   0     0.97174   430.01038   440.68786 
   9   1   2     0.96054   160.69148   163.28076 
   9   1   4     0.92912   784.99073   800.61526 
   9   1   6     0.88298   177.70768   178.89583 
   9   1   8     0.82859   438.29619   433.96183 
   9   1  10     0.77148   176.06423   174.91674 
   9   1  12     0.71548   402.77693   406.73246 
   9   1  14     0.66278    16.78516    16.72786 
   9   1  16     0.61439   300.69355   304.30933 
   9   1  18     0.57059    19.25658    19.27477 
   9   2   1     0.95175    63.01465    63.86284 
   9   2   3     0.93103   298.61389   305.35448 
   9   2   5     0.89334     2.46823     2.48087 
   9   2   7     0.84452   370.36930   366.45140 
   9   2   9     0.79035    19.33389    18.57838 
   9   2  11     0.73534   135.17853   134.97989 
   9   2  13     0.68239     0.25054     0.25264 
   9   2  15     0.63304     3.47988     3.47738 
   9   2  17     0.58794    10.68436    10.72515 
   9   3   0     0.92755   354.59997   362.25647 
   9   3   2     0.91779   346.69168   350.88584 
   9   3   4     0.89027   766.76723   779.18464 
   9   3   6     0.84943   214.50422   213.71253 
   9   3   8     0.80068   587.10428   569.13913 
   9   3  10     0.74880   119.50017   119.18953 
   9   3  12     0.69728   522.80591   531.71882 
   9   3  14     0.64823    12.88341    12.71862 
   9   3  16     0.60275   287.09728   285.25050 
   9   3  18     0.56123    28.25195    27.94417 
   9   4   1     0.89125   374.84678   380.03971 
   9   4   3     0.87416    19.11208    19.24179 
   9   4   5     0.84274   708.39377   700.01766 
   9   4   7     0.80139     6.76311     6.54056 
   9   4   9     0.75467   409.56158   411.62784 
   9   4  11     0.70634     0.06922     0.07068 
   9   4  13     0.65903    47.67367    47.69631 
   9   4  15     0.61426    19.91080    20.13891 
   9   4  17     0.57280     0.01515     0.01512 
   9   5   0     0.85468    87.04676    87.71314 
   9   5   2     0.84703   132.60659   131.58527 
   9   5   4     0.82525   269.58192   267.28825 
   9   5   6     0.79241    48.24330    46.63432 
   9   5   8     0.75239   341.70442   343.13860 
   9   5  10     0.70886    12.03384    12.17947 
   9   5  12     0.66469   371.73136   371.33397 
   9   5  14     0.62180     1.91522     1.94307 
   9   5  16     0.58132   163.94588   163.69043 
   9   6   1     0.81185   133.67506   130.19474 
   9   6   3     0.79887   227.97858   222.94093 
   9   6   5     0.77468    58.30859    57.20377 
   9   6   7     0.74219   145.97782   147.07584 
   9   6   9     0.70462    24.82739    25.32157 
   9   6  11     0.66480    46.41930    46.42821 
   9   6  13     0.62491    18.16068    18.23401 
   9   6  15     0.58635     3.94523     3.92520 
   9   7   0     0.77177   436.92883   434.58273 
   9   7   2     0.76612   378.51165   379.57686 
   9   7   4     0.74989   909.17209   908.64265 
   9   7   6     0.72499   190.20654   194.20889 
   9   7   8     0.69397   750.40921   755.02756 
   9   7  10     0.65937    76.87407    76.92046 
   9   7  12     0.62337   439.90047   442.96545 
   9   7  14     0.58759    51.75667    51.89083 
   9   8   1     0.72955    12.80934    12.94904 
   9   8   3     0.72009    94.45636    96.03831 
   9   8   5     0.70222     2.77086     2.80583 
   9   8   7     0.67775    86.84049    87.69086 
   9   8   9     0.64878     0.22984     0.22685 
   9   8  11     0.61730    14.97956    15.15358 
   9   8  13     0.58497     2.84149     2.82658 
   9   9   0     0.69135    73.70478    74.63347 
   9   9   2     0.68728    28.60870    28.66353 
   9   9   4     0.67549   127.20258   128.09640 
   9   9   6     0.65713     7.30378     7.27115 
   9   9   8     0.63376    75.01672    74.69250 
   9   9  10     0.60708     1.00763     1.00626 
   9   9  12     0.57864    30.08794    30.02475 
  10   0   0     0.87995   560.14117   566.99609 
  10   0   2     0.87160   252.96236   257.65062 
  10   0   4     0.84793   890.07859   886.34285 
  10   0   6     0.81242   223.95135   218.38857 
  10   0   8     0.76946   533.56540   532.69983 
  10   0  10     0.72308   189.39106   190.92081 
  10   0  12     0.67637   148.16543   150.01747 
  10   0  14     0.63133   158.41385   158.44592 
  10   0  16     0.58909    71.14320    71.14393 
  10   1   1     0.87350     7.49891     7.56611 
  10   1   3     0.85740     1.94783     1.95880 
  10   1   5     0.82770    33.27908    32.94295 
  10   1   7     0.78842    13.11712    12.67174 
  10   1   9     0.74380    25.45174    25.53949 
  10   1  11     0.69741     2.36127     2.40467 
  10   1  13     0.65175     0.67234     0.66153 
  10   1  15     0.60836     1.54085     1.55029 
  10   1  17     0.56801     1.19962     1.19796 
  10   2   0     0.86286   116.56482   117.43324 
  10   2   2     0.85499     0.44929     0.45267 
  10   2   4     0.83261   176.89418   173.62179 
  10   2   6     0.79891     7.87839     7.70418 
  10   2   8     0.75795   138.56666   138.84956 
  10   2  10     0.71351    51.67115    52.26226 
  10   2  12     0.66851    39.59788    39.48387 
  10   2  14     0.62493    99.59495    99.98162 
  10   2  16     0.58388    61.50971    61.29086 
  10   3   1     0.84098     3.07202     3.03463 
  10   3   3     0.82658   125.48439   124.06636 
  10   3   5     0.79987    37.24589    36.27845 
  10   3   7     0.76426   178.36332   176.93619 
  10   3   9     0.72342    31.77513    32.07249 
  10   3  11     0.68052    35.43533    35.59826 
  10   3  13     0.63791     1.85399     1.85840 
  10   3  15     0.59705     1.52304     1.52204 
  10   4   0     0.81701   292.21203   285.67016 
  10   4   2     0.81032   411.00288   399.82016 
  10   4   4     0.79119   477.36059   460.14591 
  10   4   6     0.76211   349.10881   345.08942 
  10   4   8     0.72631   336.85407   343.77732 
  10   4  10     0.68692   252.40740   252.72212 
  10   4  12     0.64650   150.09205   148.80916 
  10   4  14     0.60683   132.55023   132.33568 
  10   4  16     0.56904   144.06670   143.82862 
  10   5   1     0.78554    73.41573    71.36157 
  10   5   3     0.77377     3.20348     3.16439 
  10   5   5     0.75172   134.69487   135.29573 
  10   5   7     0.72193     0.47546     0.48306 
  10   5   9     0.68721    59.08107    59.18131 
  10   5  11     0.65013     3.64124     3.59475 
  10   5  13     0.61267     0.76947     0.77880 
  10   5  15     0.57620     9.93404     9.91501 
  10   6   0     0.75455   140.64881   141.26453 
  10   6   2     0.74927   503.99321   502.85674 
  10   6   4     0.73407   265.62403   265.92382 
  10   6   6     0.71067   353.55937   357.73597 
  10   6   8     0.68137   232.61320   234.45436 
  10   6  10     0.64854   196.03529   193.42989 
  10   6  12     0.61419   157.77323   159.55069 
  10   6  14     0.57988    63.07555    62.95274 
  10   7   1     0.71972    47.16574    47.92290 
  10   7   3     0.71063    12.46450    12.61051 
  10   7   5     0.69344    67.09459    67.43718 
  10   7   7     0.66985     1.99225     1.99930 
  10   7   9     0.64184    33.23212    33.12800 
  10   7  11     0.61132     1.20503     1.21713 
  10   7  13     0.57986     5.80742     5.79567 
  10   8   0     0.68712    11.33966    11.35612 
  10   8   2     0.68313   147.87631   149.07886 
  10   8   4     0.67155     4.61421     4.62021 
  10   8   6     0.65349    79.38478    78.33613 
  10   8   8     0.63050    10.80827    10.83956 
  10   8  10     0.60421    26.46216    26.55725 
  10   8  12     0.57615    55.48698    55.37641 
  10   9   1     0.65319     0.58943     0.58139 
  10   9   3     0.64638    33.08475    32.77993 
  10   9   5     0.63336     6.29454     6.27973 
  10   9   7     0.61523    25.07146    25.42930 
  10   9   9     0.59332     0.09594     0.09544 
  10   9  11     0.56896     0.24038     0.23987 
  10  10   0     0.62222    54.66785    55.46666 
  10  10   2     0.61925   319.64831   321.13678 
  10  10   4     0.61058   125.50938   126.70428 
  10  10   6     0.59692   167.50322   167.26169 
  10  10   8     0.57924   135.22831   134.71737 
  11   1   0     0.79667    31.71893    31.13041 
  11   1   2     0.79046   416.22970   400.06327 
  11   1   4     0.77267   138.19418   137.59147 
  11   1   6     0.74552   167.21316   167.37046 
  11   1   8     0.71190   300.41517   305.13403 
  11   1  10     0.67470    12.57900    12.59782 
  11   1  12     0.63628   437.17558   435.50116 
  11   1  14     0.59836     0.40017     0.39936 
  11   1  16     0.56203   169.76023   168.22672 
  11   2   1     0.78554    53.13682    51.65007 
  11   2   3     0.77377    13.07608    12.91654 
  11   2   5     0.75172    83.72070    84.09417 
  11   2   7     0.72193     0.30090     0.30571 
  11   2   9     0.68721    44.92017    44.99639 
  11   2  11     0.65013     3.73630     3.68860 
  11   2  13     0.61267     0.95595     0.96754 
  11   2  15     0.57620     9.80704     9.78826 
  11   3   0     0.77177   340.27049   338.44340 
  11   3   2     0.76612   226.17405   226.81054 
  11   3   4     0.74989   691.22450   690.82198 
  11   3   6     0.72499   124.63472   127.25729 
  11   3   8     0.69397   596.20251   599.87181 
  11   3  10     0.65937    37.47491    37.49753 
  11   3  12     0.62337   429.37819   432.36986 
  11   3  14     0.58759    26.07050    26.13808 
  11   4   1     0.75047    92.89587    93.09554 
  11   4   3     0.74019   162.25176   163.97099 
  11   4   5     0.72082    27.15423    27.67642 
  11   4   7     0.69443   130.37011   131.55927 
  11   4   9     0.66336    13.45055    13.39236 
  11   4  11     0.62983    22.88446    23.08408 
  11   4  13     0.59559    22.52109    22.42905 
  11   4  15     0.56193     0.43779     0.43382 
  11   5   0     0.72825   306.29381   309.84968 
  11   5   2     0.72350     0.15179     0.15330 
  11   5   4     0.70978   505.62878   511.01526 
  11   5   6     0.68856     5.66598     5.73514 
  11   5   8     0.66182   303.72959   302.21195 
  11   5  10     0.63161    20.01432    20.02799 
  11   5  12     0.59976   152.24996   151.40987 
  11   5  14     0.56769    46.77563    46.77419 
  11   6   1     0.70120   117.53427   118.82746 
  11   6   3     0.69279   118.74385   119.66499 
  11   6   5     0.67683    74.56800    75.60457 
  11   6   7     0.65484    75.06189    74.43376 
  11   6   9     0.62860    29.03668    29.43844 
  11   6  11     0.59985    33.70676    33.51694 
  11   6  13     0.57005     9.20888     9.22887 
  11   7   0     0.67489   303.88965   304.64941 
  11   7   2     0.67110     3.09052     3.09732 
  11   7   4     0.66011   438.31256   438.03083 
  11   7   6     0.64294     9.10775     9.06358 
  11   7   8     0.62100   193.36035   195.32028 
  11   7  10     0.59584    45.78497    45.59730 
  11   7  12     0.56888    64.54362    64.37962 
  11   8   1     0.64611    73.78079    72.99510 
  11   8   3     0.63951    22.05835    22.06930 
  11   8   5     0.62690    89.99058    89.75715 
  11   8   7     0.60930     9.16795     9.22181 
  11   8   9     0.58800    29.88275    29.99975 
  11   8  11     0.56426    15.34184    15.19868 
  11   9   0     0.61913   307.97299   309.26312 
  11   9   2     0.61620    78.92429    79.95373 
  11   9   4     0.60766   443.02628   443.68940 
  11   9   6     0.59419   123.86148   123.63226 
  11   9   8     0.57674   189.46096   189.24763 
  11  10   1     0.59127     3.42183     3.38949 
  11  10   3     0.58620    10.07745    10.01827 
  11  10   5     0.57644     1.33628     1.33406 
  11  10   7     0.56268     2.12078     2.10103 
  11  11   0     0.56565     0.21284     0.21237 
  11  11   2     0.56342     2.85956     2.83576 
  12   0   0     0.73329   103.20970   103.95386 
  12   0   2     0.72844    20.40898    20.64073 
  12   0   4     0.71445   123.25717   124.10367 
  12   0   6     0.69282     1.68498     1.69778 
  12   0   8     0.66559    27.25215    27.40716 
  12   0  10     0.63489    50.53759    50.28372 
  12   0  12     0.60256     3.39531     3.36951 
  12   0  14     0.57006    38.20555    38.28779 
  12   1   1     0.72955    21.12988    21.36032 
  12   1   3     0.72009    16.08149    16.35082 
  12   1   5     0.70222    19.50758    19.75382 
  12   1   7     0.67775     6.41677     6.47961 
  12   1   9     0.64878     8.88514     8.76920 
  12   1  11     0.61730     5.07345     5.13239 
  12   1  13     0.58497     0.44124     0.43892 
  12   2   0     0.72331   401.09111   404.62696 
  12   2   2     0.71866   299.07450   303.64801 
  12   2   4     0.70521   571.75048   583.93247 
  12   2   6     0.68439   358.53777   362.77409 
  12   2   8     0.65811   242.79668   242.37923 
  12   2  10     0.62838   333.29091   337.33038 
  12   2  12     0.59699    96.39071    96.29489 
  12   2  14     0.56534   122.06526   121.50604 
  12   3   1     0.71028     0.19082     0.19289 
  12   3   3     0.70154     1.06874     1.07970 
  12   3   5     0.68499     0.38114     0.38633 
  12   3   7     0.66222     3.04169     3.02774 
  12   3   9     0.63512     0.16085     0.16002 
  12   3  11     0.60550     0.04722     0.04736 
  12   3  13     0.57489     1.76065     1.75229 
  12   4   0     0.69566     2.19671     2.22858 
  12   4   2     0.69152   217.09199   219.70417 
  12   4   4     0.67951     8.22588     8.26898 
  12   4   6     0.66082   162.42678   162.09799 
  12   4   8     0.63707    26.39423    26.49100 
  12   4  10     0.60999    82.03463    82.54545 
  12   4  12     0.58116    65.39232    65.30919 
  12   5   1     0.67592    22.21582    22.43751 
  12   5   3     0.66838    15.38005    15.32973 
  12   5   5     0.65402    16.32116    16.14831 
  12   5   7     0.63411    10.83374    10.77581 
  12   5   9     0.61020     6.76046     6.80928 
  12   5  11     0.58379     3.43014     3.41801 
  12   6   0     0.65587     5.32205     5.28991 
  12   6   2     0.65240   471.73965   464.93018 
  12   6   4     0.64229    32.57078    32.44844 
  12   6   6     0.62644   235.41926   234.54121 
  12   6   8     0.60609    98.07309    98.08712 
  12   6  10     0.58264    60.93664    60.79543 
  12   7   1     0.63261    45.07825    45.11760 
  12   7   3     0.62641    67.23924    66.98615 
  12   7   5     0.61455    21.47913    21.75161 
  12   7   7     0.59794    37.95866    37.96315 
  12   7   9     0.57777    17.72382    17.74805 
  12   8   0     0.61013    35.99139    36.23765 
  12   8   2     0.60733   340.83712   340.66009 
  12   8   4     0.59915   102.97418   102.50012 
  12   8   6     0.58622   165.27432   164.32010 
  12   8   8     0.56945   149.70389   149.82201 
  12   9   1     0.58601    40.17485    39.91012 
  12   9   3     0.58107    27.07702    27.04656 
  12   9   5     0.57156    29.05488    28.97646 
  12  10   0     0.56333     6.45216     6.39821 
  12  10   2     0.56112     0.01558     0.01541 
  13   1   0     0.67489    81.79670    82.00120 
  13   1   2     0.67110   289.13015   289.76675 
  13   1   4     0.66011   214.70323   214.56523 
  13   1   6     0.64294   124.06646   123.46489 
  13   1   8     0.62100   290.30267   293.24524 
  13   1  10     0.59584    25.46511    25.36073 
  13   1  12     0.56888   223.21311   222.64594 
  13   2   1     0.66808     3.39101     3.38023 
  13   2   3     0.66080     2.56537     2.56034 
  13   2   5     0.64691     1.91709     1.90341 
  13   2   7     0.62763     1.96369     1.97026 
  13   2   9     0.60441     1.75760     1.76505 
  13   2  11     0.57872     0.01810     0.01806 
  13   3   0     0.65955    66.01145    66.04456 
  13   3   2     0.65601     0.86189     0.85704 
  13   3   4     0.64574   137.22296   135.53778 
  13   3   6     0.62964     1.60915     1.62609 
  13   3   8     0.60899   117.77848   118.52490 
  13   3  10     0.58521     8.63145     8.58015 
  13   4   1     0.64611    14.50696    14.35247 
  13   4   3     0.63951    17.66842    17.67719 
  13   4   5     0.62690    10.40616    10.37916 
  13   4   7     0.60930     7.83248     7.87849 
  13   4   9     0.58800     5.34592     5.36685 
  13   4  11     0.56426     3.73579     3.70093 
  13   5   0     0.63177   360.07222   360.43694 
  13   5   2     0.62866    62.03586    62.91904 
  13   5   4     0.61960   553.21316   556.69122 
  13   5   6     0.60533    96.17398    96.50677 
  13   5   8     0.58692   238.13627   237.76738 
  13   5  10     0.56554   142.28695   141.85551 
  13   6   1     0.61386    40.72732    41.15386 
  13   6   3     0.60819    26.64899    26.79550 
  13   6   5     0.59731    31.07540    31.09616 
  13   6   7     0.58204    20.97956    20.93151 
  13   6   9     0.56338     6.38898     6.33569 
  13   7   0     0.59598    94.32881    93.95188 
  13   7   2     0.59336     0.57421     0.57136 
  13   7   4     0.58573   131.03909   130.12449 
  13   7   6     0.57363    17.82159    17.79043 
  13   8   1     0.57588    43.27297    43.16299 
  13   8   3     0.57119    36.85154    36.79126 
  13   8   5     0.56215    39.10435    38.74985 
  14   0   0     0.62853    70.10538    71.04127 
  14   0   2     0.62547    57.77712    57.80154 
  14   0   4     0.61655   105.63590   107.02575 
  14   0   6     0.60249    69.92617    69.37113 
  14   0   8     0.58432    45.92067    45.74492 
  14   0  10     0.56322    69.91180    69.32338 
  14   1   1     0.62617    28.68788    28.59056 
  14   1   3     0.62016    23.21851    23.41785 
  14   1   5     0.60864    22.79001    22.94013 
  14   1   7     0.59250    10.74628    10.65171 
  14   1   9     0.57285    14.82269    14.80216 
  14   2   0     0.62222    38.48609    39.04845 
  14   2   2     0.61925    44.56204    44.76955 
  14   2   4     0.61058    66.78468    67.42050 
  14   2   6     0.59692    50.07141    49.99921 
  14   2   8     0.57924    47.77695    47.59643 
  14   3   1     0.61386     5.74015     5.80026 
  14   3   3     0.60819     8.95036     8.99956 
  14   3   5     0.59731     2.22220     2.22368 
  14   3   7     0.58204     8.16152     8.14282 
  14   3   9     0.56338     0.01135     0.01126 
  14   4   0     0.60435    68.10086    68.37903 
  14   4   2     0.60163   241.06217   238.72857 
  14   4   4     0.59367   147.45808   146.99067 
  14   4   6     0.58109   131.46162   131.31003 
  14   4   8     0.56474   171.13942   169.70889 
  14   5   1     0.59127     1.54779     1.53317 
  14   5   3     0.58620     3.21998     3.20107 
  14   5   5     0.57644     0.71646     0.71527 
  14   5   7     0.56268     1.45043     1.43692 
  14   6   0     0.57771     4.07279     4.07840 
  14   6   2     0.57533    62.41003    62.14487 
  14   6   4     0.56836    20.68090    20.62123 
  14   7   1     0.56163    21.39841    21.19359 
  15   1   0     0.58533    37.76282    37.52552 
  15   1   2     0.58286    44.16355    44.04517 
  15   1   4     0.57561    75.42615    75.17340 
  15   1   6     0.56412    30.54167    30.25699 
  15   2   1     0.58088     1.59518     1.59377 
  15   2   3     0.57607     0.10517     0.10495 
  15   2   5     0.56680     6.63281     6.64140 
  15   3   0     0.57524    95.81314    95.38445 
  15   3   2     0.57289   140.39558   140.21159 
  15   3   4     0.56601   151.89265   151.86561 
  15   4   1     0.56626     0.00353     0.00354 
  15   4   3     0.56180     2.49134     2.46839 
loop_
_pd_proc_point_id
_pd_meas_time_of_flight
_pd_proc_intensity_total
_pd_calc_intensity_total
_pd_proc_ls_weight
         1 12658.09222    64.94866    64.29092     9.23603
         2 12668.21869    65.12068    63.97754     9.27682
         3 12678.35326    65.34596    64.76088     9.19210
         4 12688.49595    65.55627    65.31805     9.13960
         5 12698.64674    65.62819    64.87650     9.20341
         6 12708.80566    65.63980    64.55640     9.25186
         7 12718.97271    65.62018    65.63649     9.13642
         8 12729.14788    65.64434    64.96217     9.22115
         9 12739.33120    65.89551    64.87996     9.23961
        10 12749.52267    66.32403    65.57866     9.17256
        11 12759.72228    66.64705    65.87271     9.15559
        12 12769.93006    66.50800    66.75026     9.07188
        13 12780.14601    66.02913    66.21220     9.14425
        14 12790.37012    65.62071    66.03050     9.17603
        15 12800.60242    65.45106    65.41292     9.25843
        16 12810.84290    65.49111    65.66921     9.24011
        17 12821.09158    65.66634    65.82004     9.23290
        18 12831.34845    65.98076    65.53688     9.27494
        19 12841.61353    66.40244    65.45137     9.29395
        20 12851.88682    66.47812    66.57871     9.17299
        21 12862.16833    66.11127    66.79693     9.15311
        22 12872.45806    65.76103    65.84511     9.26275
        23 12882.75603    65.59818    65.99847     9.24526
        24 12893.06223    65.57782    65.24123     9.33541
        25 12903.37668    65.60187    65.35765     9.32829
        26 12913.69939    65.62018    65.02023     9.37422
        27 12924.03034    65.72700    65.81234     9.28841
        28 12934.36957    65.87041    65.50114     9.33164
        29 12944.71706    65.80900    66.23458     9.25342
        30 12955.07284    65.67454    65.43998     9.35003
        31 12965.43690    65.67553    65.18466     9.38402
        32 12975.80925    65.84738    65.66250     9.33160
        33 12986.18989    66.14535    65.38458     9.36474
        34 12996.57885    66.35751    66.21368     9.26856
        35 13006.97611    66.44162    66.60459     9.22510
        36 13017.38169    66.56816    66.35999     9.25558
        37 13027.79559    66.66023    66.45195     9.24939
        38 13038.21783    66.49441    66.90786     9.20192
        39 13048.64841    66.20164    66.53866     9.24633
        40 13059.08732    66.10964    66.18892     9.28783
        41 13069.53459    66.25868    65.71800     9.34480
        42 13079.99022    66.42273    65.88933     9.32822
        43 13090.45421    66.38427    65.89373     9.33004
        44 13100.92658    66.36776    66.91448     9.21548
        45 13111.40732    66.61308    66.37408     9.27958
        46 13121.89644    66.98685    67.08615     9.20009
        47 13132.39396    66.99685    66.80920     9.23095
        48 13142.89988    66.89324    66.44728     9.27247
        49 13153.41420    66.84833    67.18300     9.19219
        50 13163.93693    66.70551    66.26766     9.30255
        51 13174.46808    66.59604    66.37047     9.29973
        52 13185.00765    66.73748    66.44022     9.29974
        53 13195.55566    67.11545    66.95857     9.24569
        54 13206.11210    67.48714    67.15225     9.22631
        55 13216.67699    67.47912    67.09449     9.23453
        56 13227.25033    67.46502    66.65965     9.28609
        57 13237.83213    67.51118    66.81599     9.27012
        58 13248.42240    67.50712    67.55024     9.19015
        59 13259.02114    67.45072    67.28223     9.22576
        60 13269.62835    67.24659    67.76793     9.17904
        61 13280.24406    66.95901    67.44056     9.22328
        62 13290.86825    66.78195    67.35859     9.23859
        63 13301.50095    66.77031    66.43053     9.34850
        64 13312.14215    66.70551    66.86882     9.30161
        65 13322.79186    66.66632    66.03981     9.39900
        66 13333.45010    66.64398    66.34223     9.36485
        67 13344.11686    66.61621    65.85017     9.42233
        68 13354.79215    66.72915    65.63897     9.44795
        69 13365.47598    66.81825    66.49850     9.35195
        70 13376.16836    66.73613    65.84559     9.43579
        71 13386.86930    66.73591    65.91503     9.43792
        72 13397.57879    66.97634    66.61136     9.36657
        73 13408.29686    67.30588    67.11242     9.31678
        74 13419.02349    67.38578    67.63926     9.26342
        75 13429.75871    67.37876    66.93879     9.35001
        76 13440.50252    67.73288    67.80860     9.26090
        77 13451.25492    68.05949    67.32018     9.32633
        78 13462.01593    67.93783    68.01229     9.25882
        79 13472.78554    67.90545    67.24917     9.35611
        80 13483.56377    67.91792    67.99742     9.28548
        81 13494.35062    67.53473    68.25054     9.27410
        82 13505.14610    67.21344    67.23335     9.40450
        83 13515.95022    67.16323    66.95709     9.44652
        84 13526.76298    67.37245    67.00270     9.44565
        85 13537.58439    67.62122    67.29272     9.41334
        86 13548.41445    67.62223    67.18308     9.42549
        87 13559.25318    67.42853    67.26101     9.41426
        88 13570.10059    67.45043    66.61070     9.48525
        89 13580.95667    67.81849    66.87772     9.45154
        90 13591.82143    68.11643    67.56918     9.37379
        91 13602.69489    68.30675    67.46252     9.39056
        92 13613.57705    68.48023    67.72381     9.36785
        93 13624.46791    68.36724    68.53676     9.28374
        94 13635.36748    68.46521    68.29803     9.31828
        95 13646.27578    68.32016    68.90243     9.26381
        96 13657.19280    68.01717    68.54653     9.32243
        97 13668.11855    67.98264    68.18361     9.38314
        98 13679.05305    68.15351    68.64647     9.34571
        99 13689.99629    68.59680    68.29885     9.39370
       100 13700.94829    69.35418    69.25937     9.28974
       101 13711.90904    70.13608    69.86634     9.22332
       102 13722.87857    70.37316    70.21984     9.18240
       103 13733.85687    69.47534    70.22505     9.17606
       104 13744.84396    68.77892    69.44161     9.25531
       105 13755.83983    68.77747    69.29831     9.26959
       106 13766.84451    69.02944    69.48909     9.25194
       107 13777.85798    69.21195    69.08949     9.30146
       108 13788.88027    69.18788    70.09137     9.19801
       109 13799.91137    68.60649    69.64174     9.25515
       110 13810.95130    68.07104    68.23880     9.42255
       111 13822.00006    67.87710    68.82154     9.36962
       112 13833.05766    67.89312    68.81030     9.38266
       113 13844.12411    68.07792    69.04662     9.36596
       114 13855.19941    68.48809    68.96825     9.38371
       115 13866.28357    69.26260    69.96562     9.28219
       116 13877.37659    69.76778    70.31759     9.25451
       117 13888.47850    69.21055    70.58861     9.23547
       118 13899.58928    68.66215    69.68396     9.34166
       119 13910.70895    68.66647    69.53368     9.35995
       120 13921.83752    68.93068    69.63672     9.34549
       121 13932.97499    69.00123    70.19626     9.27785
       122 13944.12137    69.12485    69.96994     9.29564
       123 13955.27666    69.50736    70.25786     9.25921
       124 13966.44089    70.63939    70.93589     9.18628
       125 13977.61404    72.00791    71.86591     9.09456
       126 13988.79613    72.96025    73.51098     8.93550
       127 13999.98717    72.17070    72.64874     9.03411
       128 14011.18716    70.84157    71.97272     9.11855
       129 14022.39611    70.87251    71.19536     9.21964
       130 14033.61402    71.01815    71.82983     9.17405
       131 14044.84091    70.54622    71.69447     9.20918
       132 14056.07679    70.11492    72.17007     9.17363
       133 14067.32165    70.57552    70.88115     9.32033
       134 14078.57551    71.94227    72.27706     9.17362
       135 14089.83837    71.41525    71.77032     9.22625
       136 14101.11024    70.11653    71.30444     9.27173
       137 14112.39113    69.72240    70.18663     9.38830
       138 14123.68104    69.77256    69.77945     9.43089
       139 14134.97998    70.29270    70.55087     9.34764
       140 14146.28797    72.13432    71.25488     9.27836
       141 14157.60500    73.54327    73.45477     9.06058
       142 14168.93108    72.31712    71.66095     9.26755
       143 14180.26623    71.39065    71.76168     9.27558
       144 14191.61044    71.62499    72.39247     9.22141
       145 14202.96373    71.20545    72.90118     9.17443
       146 14214.32610    70.19790    71.61542     9.31181
       147 14225.69756    69.76144    70.52147     9.42601
       148 14237.07812    69.87097    70.21169     9.45235
       149 14248.46778    70.80272    70.73720     9.38824
       150 14259.86655    72.18779    71.78749     9.27232
       151 14271.27445    72.15293    72.39091     9.20804
       152 14282.69147    70.92867    71.07996     9.35037
       153 14294.11762    70.05459    70.26340     9.44604
       154 14305.55291    69.79103    69.67693     9.52033
       155 14316.99736    69.89170    69.43887     9.55415
       156 14328.45095    70.03555    69.28825     9.57516
       157 14339.91372    70.05779    69.78348     9.52217
       158 14351.38565    70.13020    69.96174     9.50677
       159 14362.86675    71.04727    69.99497     9.50871
       160 14374.35705    72.30128    71.65444     9.33206
       161 14385.85653    71.65736    71.98703     9.30257
       162 14397.36522    70.48397    71.38969     9.37593
       163 14408.88311    69.85902    70.20688     9.51718
       164 14420.41022    69.64806    69.48936     9.60621
       165 14431.94655    69.63507    69.02311     9.66508
       166 14443.49210    69.69423    69.58036     9.60590
       167 14455.04690    69.67500    70.35671     9.52404
       168 14466.61093    69.63657    69.42039     9.63606
       169 14478.18422    69.68761    69.69906     9.60842
       170 14489.76677    69.89908    70.14669     9.56034
       171 14501.35858    70.24545    69.50357     9.63210
       172 14512.95967    70.55549    70.56384     9.50590
       173 14524.57004    70.83385    70.66410     9.48654
       174 14536.18969    70.66919    69.90071     9.56604
       175 14547.81865    70.36673    69.69261     9.58848
       176 14559.45690    70.20260    69.71889     9.58763
       177 14571.10447    70.31736    69.53592     9.61311
       178 14582.76135    70.88322    69.48886     9.62939
       179 14594.42756    71.39565    70.53161     9.52995
       180 14606.10310    71.29074    70.60393     9.54318
       181 14617.78798    70.72712    70.96188     9.52318
       182 14629.48221    70.52444    69.52732     9.70070
       183 14641.18580    70.86414    69.99880     9.65408
       184 14652.89875    71.09060    69.62890     9.69774
       185 14664.62107    70.72072    70.16897     9.63712
       186 14676.35276    70.43816    69.61334     9.70404
       187 14688.09385    70.38253    69.27467     9.75025
       188 14699.84432    70.43400    69.78971     9.70051
       189 14711.60420    70.66243    69.38655     9.75771
       190 14723.37348    71.43936    69.96973     9.70126
       191 14735.15218    72.56716    71.50376     9.53810
       192 14746.94030    72.53190    71.85402     9.50784
       193 14758.73785    72.57098    71.26775     9.57958
       194 14770.54484    72.83012    71.88956     9.51656
       195 14782.36128    72.07731    71.99527     9.51085
       196 14794.18717    71.42706    70.69192     9.66048
       197 14806.02252    71.14602    70.51421     9.68276
       198 14817.86734    71.06325    70.68361     9.66668
       199 14829.72163    70.99396    70.83396     9.65496
       200 14841.58541    71.08651    70.58769     9.69239
       201 14853.45868    71.54379    71.19300     9.63663
       202 14865.34144    72.16401    72.06556     9.55086
       203 14877.23372    72.32753    72.34775     9.52967
       204 14889.13550    72.83737    72.94220     9.47327
       205 14901.04681    74.08606    74.36362     9.32579
       206 14912.96765    74.94217    74.72778     9.28755
       207 14924.89802    74.05653    74.16689     9.34513
       208 14936.83794    73.24901    73.09974     9.45905
       209 14948.78741    73.20103    72.48759     9.52637
       210 14960.74644    72.93662    72.49515     9.52704
       211 14972.71504    72.98515    73.03853     9.47276
       212 14984.69321    73.02839    72.81751     9.50513
       213 14996.68097    72.86733    72.16664     9.58655
       214 15008.67831    73.58286    72.70845     9.53641
       215 15020.68525    73.88765    73.96437     9.40863
       216 15032.70180    73.00597    74.17788     9.39440
       217 15044.72796    72.56229    72.94477     9.53689
       218 15056.76374    72.67884    72.87984     9.55498
       219 15068.80916    72.46079    72.56050     9.60216
       220 15080.86420    72.45905    72.54640     9.61692
       221 15092.92889    73.66249    73.01750     9.57692
       222 15105.00324    75.30583    74.43612     9.43401
       223 15117.08724    74.51888    75.21357     9.36096
       224 15129.18091    72.97060    72.99186     9.60593
       225 15141.28425    72.53716    73.18374     9.58799
       226 15153.39728    73.00442    73.43546     9.55728
       227 15165.52000    73.10472    73.08985     9.58842
       228 15177.65242    72.50971    72.61174     9.63662
       229 15189.79454    72.12903    72.37980     9.66415
       230 15201.94637    72.05117    71.72671     9.74713
       231 15214.10793    72.15727    72.21426     9.70836
       232 15226.27922    72.63994    72.68298     9.67291
       233 15238.46024    73.74565    73.44728     9.60248
       234 15250.65101    74.39676    74.40694     9.50782
       235 15262.85153    74.09374    75.04282     9.44838
       236 15275.06181    73.92947    74.52671     9.51423
       237 15287.28186    73.72735    75.21608     9.45496
       238 15299.51169    73.32459    74.64407     9.53095
       239 15311.75129    73.08573    73.27869     9.69400
       240 15324.00070    72.84095    73.38675     9.69387
       241 15336.25990    72.76590    73.67135     9.66932
       242 15348.52890    72.96806    73.14474     9.73082
       243 15360.80773    73.72644    73.84377     9.65613
       244 15373.09637    74.48482    74.64942     9.57004
       245 15385.39485    74.59755    74.79602     9.55438
       246 15397.70317    74.63177    75.58498     9.47262
       247 15410.02133    74.93641    75.80856     9.45531
       248 15422.34935    75.00327    75.11959     9.53592
       249 15434.68723    74.54460    75.50390     9.50007
       250 15447.03498    74.45913    74.73205     9.58224
       251 15459.39260    74.84250    75.45337     9.50090
       252 15471.76012    74.33531    76.03115     9.43389
       253 15484.13753    73.61940    74.72839     9.56621
       254 15496.52484    73.63329    74.09912     9.63026
       255 15508.92206    74.64271    74.57516     9.57608
       256 15521.32919    75.67958    74.89503     9.54114
       257 15533.74626    75.17612    75.05768     9.52670
       258 15546.17325    74.68841    75.50055     9.48618
       259 15558.61019    75.32540    75.80755     9.46135
       260 15571.05708    75.24466    77.16537     9.32684
       261 15583.51393    74.44269    76.25760     9.42329
       262 15595.98074    74.45618    76.14259     9.43645
       263 15608.45752    75.12480    76.18057     9.43354
       264 15620.94429    75.45920    76.15378     9.43941
       265 15633.44104    75.09635    75.96319     9.46507
       266 15645.94780    75.25000    76.26949     9.43954
       267 15658.46455    76.92573    77.12639     9.35570
       268 15670.99133    80.35529    80.14342     9.05890
       269 15683.52812    80.92924    81.17385     8.96116
       270 15696.07494    77.78642    78.77153     9.19064
       271 15708.63180    75.37953    76.29524     9.43930
       272 15721.19871    74.65797    76.18443     9.44985
       273 15733.77567    75.34974    76.10447     9.45866
       274 15746.36269    77.54531    77.80182     9.28809
       275 15758.95978    78.59579    80.45188     9.03515
       276 15771.56694    77.24039    79.41579     9.14196
       277 15784.18420    75.62861    77.52437     9.33990
       278 15796.81154    74.64882    76.58326     9.44841
       279 15809.44899    74.33390    75.78234     9.54078
       280 15822.09655    74.54051    75.91743     9.52920
       281 15834.75423    75.55962    76.36145     9.48134
       282 15847.42203    77.75810    78.04539     9.30635
       283 15860.09997    79.21790    79.62766     9.14996
       284 15872.78805    77.37739    78.62727     9.25266
       285 15885.48628    75.46469    77.11483     9.41531
       286 15898.19467    74.86267    76.52051     9.48904
       287 15910.91323    75.36253    76.61418     9.49196
       288 15923.64196    76.77544    78.50142     9.31212
       289 15936.38087    77.28726    79.27581     9.24563
       290 15949.12998    76.48454    78.35610     9.34347
       291 15961.88928    75.85300    77.90479     9.39351
       292 15974.65879    75.25339    76.27579     9.56907
       293 15987.43852    75.00052    76.47437     9.55907
       294 16000.22847    75.24641    76.34609     9.58621
       295 16013.02865    75.82850    76.39388     9.59620
       296 16025.83907    77.15886    78.10490     9.43108
       297 16038.65975    78.40154    78.82202     9.36780
       298 16051.49067    78.55030    79.15912     9.34093
       299 16064.33187    77.91451    79.02974     9.35718
       300 16077.18333    77.41075    78.24101     9.43467
       301 16090.04508    76.75008    78.17447     9.43321
       302 16102.91711    75.90695    77.72903     9.46506
       303 16115.79945    75.69387    76.08873     9.62070
       304 16128.69209    75.88966    77.04815     9.51164
       305 16141.59504    76.34460    76.08903     9.61189
       306 16154.50832    77.15191    77.28908     9.49473
       307 16167.43192    77.39548    78.11967     9.42202
       308 16180.36587    76.39487    77.34484     9.51528
       309 16193.31016    75.59106    76.82006     9.58523
       310 16206.26481    75.45727    76.46310     9.63740
       311 16219.22982    75.99996    76.95996     9.59665
       312 16232.20521    76.95044    77.97565     9.49826
       313 16245.19097    77.33808    78.59182     9.44000
       314 16258.18712    78.04849    79.08828     9.39369
       315 16271.19367    79.34374    80.48282     9.25710
       316 16284.21063    78.98514    80.49576     9.25478
       317 16297.23800    77.45016    79.81777     9.32061
       318 16310.27579    76.87707    78.44304     9.46051
       319 16323.32401    78.14619    78.65887     9.44307
       320 16336.38267    80.05326    79.77362     9.33575
       321 16349.45177    79.49759    80.18576     9.29905
       322 16362.53133    78.30411    79.59189     9.36137
       323 16375.62136    78.42286    80.65337     9.26064
       324 16388.72186    78.51457    80.38447     9.29258
       325 16401.83283    78.51407    79.98639     9.34084
       326 16414.95430    78.38952    80.82985     9.26823
       327 16428.08626    78.43229    79.67036     9.39237
       328 16441.22873    79.05149    79.48377     9.42085
       329 16454.38172    78.99148    80.17772     9.36158
       330 16467.54522    78.16626    78.78289     9.51072
       331 16480.71926    78.16719    78.92801     9.50333
       332 16493.90383    78.29412    79.19734     9.48539
       333 16507.09896    77.45754    79.08613     9.50841
       334 16520.30463    76.82215    77.78984     9.65339
       335 16533.52088    77.04553    78.27323     9.61191
       336 16546.74769    77.96706    78.60929     9.58403
       337 16559.98509    78.73673    79.90532     9.45775
       338 16573.23308    79.48229    80.26056     9.42651
       339 16586.49167    81.48006    82.00723     9.25734
       340 16599.76086    86.03585    84.25562     9.04768
       341 16613.04067    88.95065    88.13781     8.70777
       342 16626.33110    85.16358    85.94748     8.90195
       343 16639.63217    80.36607    81.55248     9.31452
       344 16652.94387    78.00910    78.69268     9.60559
       345 16666.26623    77.18484    77.62388     9.72148
       346 16679.59924    76.85336    76.94740     9.79863
       347 16692.94292    76.84049    77.09798     9.79045
       348 16706.29727    77.41498    78.30933     9.67140
       349 16719.66231    78.64308    79.39349     9.56429
       350 16733.03804    79.26711    79.99791     9.50260
       351 16746.42447    78.63579    79.99398     9.49967
       352 16759.82161    78.09001    78.29327     9.66946
       353 16773.22947    77.74999    78.48793     9.64620
       354 16786.64805    77.31840    77.85226     9.71323
       355 16800.07737    77.12914    76.95966     9.81163
       356 16813.51743    77.20663    78.02854     9.70641
       357 16826.96825    77.82719    77.59681     9.76629
       358 16840.42982    79.30252    78.78945     9.65812
       359 16853.90217    80.27140    80.90857     9.45577
       360 16867.38529    79.40574    80.25888     9.52687
       361 16880.87920    78.39587    79.43437     9.61289
       362 16894.38390    78.43349    78.55922     9.70591
       363 16907.89941    80.18307    79.52950     9.60711
       364 16921.42573    84.58254    84.37234     9.13710
       365 16934.96287    89.92200    89.36181     8.69966
       366 16948.51084    90.86007    90.42691     8.61423
       367 16962.06965    88.76572    89.69445     8.68084
       368 16975.63930    86.52405    87.14366     8.90851
       369 16989.21981    84.08884    84.38185     9.16963
       370 17002.81119    81.87140    82.54271     9.35739
       371 17016.41344    80.13376    80.43337     9.57944
       372 17030.02657    80.08306    79.84835     9.65067
       373 17043.65059    81.82319    81.19678     9.52371
       374 17057.28551    82.69312    83.61346     9.29544
       375 17070.93134    81.48399    82.53697     9.40346
       376 17084.58808    79.59661    80.05061     9.65350
       377 17098.25575    78.50951    78.74667     9.78915
       378 17111.93436    78.35430    78.58142     9.80535
       379 17125.62391    78.47983    79.07573     9.75310
       380 17139.32440    78.39042    78.65683     9.79957
       381 17153.03586    78.35727    78.02028     9.87360
       382 17166.75829    78.29021    77.45677     9.94398
       383 17180.49170    78.37528    77.17033     9.98624
       384 17194.23609    79.38507    78.47533     9.85953
       385 17207.99148    82.60427    80.84012     9.63171
       386 17221.75788    86.73310    84.78644     9.26644
       387 17235.53528    86.55191    87.16067     9.06506
       388 17249.32371    83.25754    82.96523     9.46722
       389 17263.12317    81.19488    80.00523     9.76935
       390 17276.93367    80.32671    79.04978     9.87193
       391 17290.75521    80.60500    79.91860     9.78614
       392 17304.58782    81.76678    83.06448     9.47621
       393 17318.43149    81.49420    83.08239     9.47993
       394 17332.28623    80.44668    80.46028     9.74690
       395 17346.15206    80.76900    78.95997     9.90695
       396 17360.02898    82.28264    81.67838     9.62879
       397 17373.91701    83.52852    84.08097     9.39729
       398 17387.81614    83.47165    83.94208     9.41611
       399 17401.72639    82.19051    82.09650     9.60416
       400 17415.64778    82.80874    81.83859     9.63830
       401 17429.58029    86.05451    84.87567     9.35036
       402 17443.52396    86.84530    87.11256     9.15046
       403 17457.47878    84.01024    84.15851     9.43022
       404 17471.44476    81.23056    80.75704     9.76961
       405 17485.42192    79.94314    79.05645     9.94543
       406 17499.41025    79.82168    77.87940    10.06745
       407 17513.40978    80.13771    78.24598    10.02221
       408 17527.42051    80.15612    78.59146     9.98220
       409 17541.44245    80.47271    78.45188     9.99927
       410 17555.47560    81.66811    80.11457     9.82866
       411 17569.51998    82.35610    82.34391     9.60744
       412 17583.57560    81.43069    81.28814     9.71866
       413 17597.64246    80.58713    79.59700     9.89730
       414 17611.72057    81.21412    79.58414     9.89995
       415 17625.80995    82.01654    80.92658     9.76148
       416 17639.91059    81.19941    80.11272     9.84950
       417 17654.02252    79.92047    78.56886    10.01952
       418 17668.14574    79.31395    78.06282    10.08096
       419 17682.28026    79.31518    77.67384    10.12983
       420 17696.42608    79.37586    77.81304    10.12179
       421 17710.58322    79.27358    77.50510    10.16544
       422 17724.75169    79.44228    77.74907    10.14684
       423 17738.93149    80.34786    78.43603    10.07672
       424 17753.12264    82.29737    79.22588     9.99176
       425 17767.32513    84.64482    82.03574     9.69636
       426 17781.53899    84.27131    82.56194     9.64039
       427 17795.76423    81.95050    79.48054     9.95682
       428 17810.00084    80.42641    77.90221    10.13128
       429 17824.24884    80.08076    76.95903    10.24357
       430 17838.50824    81.03660    77.93218    10.14288
       431 17852.77904    83.30885    79.33861     9.99620
       432 17867.06127    84.80984    81.79475     9.74284
       433 17881.35492    84.17526    81.77513     9.74623
       434 17895.66000    83.06608    80.00927     9.93322
       435 17909.97653    82.62696    80.05570     9.93734
       436 17924.30451    81.59835    78.97003    10.06569
       437 17938.64395    80.37999    77.31161    10.25962
       438 17952.99487    79.73969    77.40727    10.25706
       439 17967.35726    79.66880    77.76242    10.22482
       440 17981.73115    80.02166    78.34265    10.16707
       441 17996.11653    80.30542    80.13763     9.97825
       442 18010.51343    80.26958    78.85092    10.11837
       443 18024.92184    80.72804    77.76147    10.23477
       444 18039.34178    82.34145    80.69797     9.90874
       445 18053.77325    83.83558    82.90459     9.67162
       446 18068.21627    84.24508    81.98972     9.75026
       447 18082.67084    85.00496    82.62677     9.67157
       448 18097.13698    84.68234    81.19662     9.80300
       449 18111.61469    83.43461    80.65968     9.84875
       450 18126.10398    83.44846    80.34159     9.87650
       451 18140.60486    83.76528    80.85429     9.82048
       452 18155.11735    82.70686    79.31022     9.97857
       453 18169.64144    81.72651    78.89448    10.01498
       454 18184.17715    82.52191    79.48608     9.93873
       455 18198.72449    84.71915    82.24786     9.63207
       456 18213.28347    84.73461    82.95989     9.52870
       457 18227.85410    82.61936    80.21931     9.76197
       458 18242.43638    81.05864    79.18392     9.82483
       459 18257.03033    80.56085    78.30779     9.87734
       460 18271.63596    80.83625    78.21343     9.85780
       461 18286.25327    81.74703    79.04696     9.75300
       462 18300.88227    83.13839    80.46523     9.59917
       463 18315.52297    83.41969    81.50588     9.49097
       464 18330.17539    82.99779    80.11728     9.62523
       465 18344.83953    83.21773    80.90286     9.53955
       466 18359.51540    82.89418    81.27633     9.49248
       467 18374.20302    81.67346    79.68738     9.63875
       468 18388.90238    80.70337    78.34811     9.75816
       469 18403.61350    80.31166    78.68934     9.69740
       470 18418.33639    80.42549    77.41280     9.80577
       471 18433.07106    81.29636    79.06850     9.60362
       472 18447.81752    82.75039    81.17446     9.36164
       473 18462.57577    83.07416    81.03185     9.34391
       474 18477.34583    81.94236    80.43259     9.37087
       475 18492.12771    80.85834    79.19274     9.46433
       476 18506.92141    80.32340    78.73413     9.48090
       477 18521.72695    80.11140    77.82555     9.54581
       478 18536.54433    80.03154    78.46975     9.45198
       479 18551.37357    80.01485    77.83052     9.48790
       480 18566.21466    80.03847    79.07571     9.32872
       481 18581.06764    80.10359    78.39983     9.36474
       482 18595.93249    80.22097    79.33698     9.24199
       483 18610.80924    80.49984    79.88920     9.16141
       484 18625.69788    81.26292    80.31854     9.09396
       485 18640.59844    82.33983    82.14123     8.89639
       486 18655.51092    82.68497    82.06684     8.87880
       487 18670.43533    82.54506    81.45970     8.91134
       488 18685.37168    82.50515    81.00595     8.93075
       489 18700.31998    83.26240    82.52418     8.76650
       490 18715.28023    84.91003    84.17117     8.59474
       491 18730.25246    85.42837    84.61836     8.53232
       492 18745.23666    84.24225    82.83121     8.66794
       493 18760.23285    83.10829    81.46069     8.77014
       494 18775.24103    83.46518    81.53537     8.73816
       495 18790.26123    84.31852    81.67696     8.69775
       496 18805.29343    83.93574    82.12786     8.62933
       497 18820.33767    82.80816    81.37431     8.67187
       498 18835.39394    81.81946    80.33642     8.74652
       499 18850.46226    81.51316    80.88124     8.68147
       500 18865.54262    82.24818    81.65385     8.60006
       501 18880.63506    83.83343    84.27227     8.35872
       502 18895.73957    84.19023    84.59804     8.31433
       503 18910.85616    83.01700    82.58982     8.46716
       504 18925.98484    82.01995    81.63130     8.53215
       505 18941.12563    81.54810    81.11970     8.55943
       506 18956.27853    81.38853    80.42773     8.60432
       507 18971.44355    81.59711    81.12424     8.52441
       508 18986.62071    82.74664    81.58949     8.46753
       509 19001.81001    86.09682    84.79017     8.17946
       510 19017.01145    90.92953    90.17840     7.74433
       511 19032.22506    93.14007    91.83746     7.61409
       512 19047.45084    91.27336    89.84007     7.75450
       513 19062.68880    88.30663    86.84581     7.97931
       514 19077.93896    86.76287    85.53686     8.07722
       515 19093.20131    85.23072    84.24145     8.17377
       516 19108.47587    83.99021    83.31374     8.23895
       517 19123.76265    84.66893    84.03584     8.16260
       518 19139.06166    88.20212    86.57133     7.94043
       519 19154.37291    92.08707    92.80677     7.46174
       520 19169.69641    91.15212    91.18175     7.56270
       521 19185.03216    87.68532    87.20728     7.84526
       522 19200.38019    84.87767    84.90491     8.01388
       523 19215.74049    83.01357    82.62321     8.18981
       524 19231.11309    82.02298    82.46871     8.19212
       525 19246.49798    81.60015    81.64795     8.25509
       526 19261.89517    81.47635    81.53964     8.25794
       527 19277.30469    81.59063    82.04753     8.20475
       528 19292.72653    81.98100    82.48923     8.15106
       529 19308.16072    82.41079    83.46108     8.04969
       530 19323.60724    82.57577    83.65604     8.01331
       531 19339.06613    83.02156    83.21367     8.02974
       532 19354.53738    84.92208    85.29295     7.84125
       533 19370.02101    88.42853    89.87004     7.47461
       534 19385.51703    90.72644    92.58828     7.26313
       535 19401.02544    93.42289    92.99184     7.21521
       536 19416.54626    98.17908    96.88757     6.94215
       537 19432.07950    97.13166    96.66560     6.93743
       538 19447.62516    90.94447    89.97901     7.36500
       539 19463.18326    86.35927    86.49694     7.60060
       540 19478.75381    84.47306    85.31642     7.66883
       541 19494.33681    83.83552    84.89115     7.67587
       542 19509.93228    83.42823    84.00895     7.71504
       543 19525.54023    83.84274    84.73978     7.62535
       544 19541.16066    86.84530    86.84107     7.43638
       545 19556.79359    92.24872    93.74421     6.93450
       546 19572.43902    93.48123    95.44398     6.80323
       547 19588.09698    89.85982    90.51927     7.09860
       548 19603.76745    86.93013    88.91390     7.18241
       549 19619.45047    85.20753    87.13283     7.28126
       550 19635.14603    84.13112    84.27006     7.46429
       551 19650.85414    84.03128    84.67549     7.40413
       552 19666.57483    84.29876    85.85296     7.28780
       553 19682.30809    84.59460    86.63330     7.20305
       554 19698.05393    84.46890    86.87729     7.15732
       555 19713.81238    83.85760    85.21189     7.24817
       556 19729.58343    84.06683    84.76429     7.25155
       557 19745.36709    85.57051    86.45859     7.10131
       558 19761.16339    86.37666    86.48136     7.07366
       559 19776.97232    85.20938    85.73195     7.10292
       560 19792.79390    83.68026    84.34766     7.17923
       561 19808.62813    82.81923    83.11254     7.24630
       562 19824.47503    82.68642    82.98200     7.23241
       563 19840.33461    83.61539    83.07870     7.20305
       564 19856.20688    86.76761    86.96828     6.90384
       565 19872.09185    91.39003    92.67240     6.51192
       566 19887.98952    92.13144    93.71837     6.42522
       567 19903.89991    88.65008    89.54962     6.66042
       568 19919.82303    85.64161    86.83621     6.81453
       569 19935.75889    84.71691    85.23469     6.89646
       570 19951.70750    84.92954    85.28288     6.86264
       571 19967.66886    85.88872    86.82756     6.72513
       572 19983.64300    89.25469    89.90141     6.49439
       573 19999.62991    93.49361    96.48624     6.07847
       574 20015.62962    92.83046    95.88763     6.08492
       575 20031.64212    89.46615    90.56142     6.36828
       576 20047.66743    88.33448    88.59650     6.46213
       577 20063.70557    89.18428    90.30839     6.32638
       578 20079.75653    89.68930    91.20715     6.24214
       579 20095.82034    90.70888    91.15581     6.21550
       580 20111.89699    92.96758    94.36316     6.00502
       581 20127.98651    93.13313    95.11038     5.94040
       582 20144.08890    90.93888    91.77533     6.10530
       583 20160.20417    88.16414    88.69489     6.26632
       584 20176.33234    86.12791    85.54127     6.44237
       585 20192.47340    84.68231    85.16875     6.44229
       586 20208.62738    83.56989    84.14249     6.48428
       587 20224.79428    83.00181    83.50364     6.50083
       588 20240.97412    82.80524    83.17378     6.49699
       589 20257.16690    82.73977    83.20028     6.46909
       590 20273.37263    82.56691    82.24216     6.50567
       591 20289.59133    82.31697    82.85391     6.43530
       592 20305.82300    82.19785    83.38892     6.37183
       593 20322.06766    82.36159    83.03849     6.36834
       594 20338.32531    83.25976    84.08429     6.27400
       595 20354.59597    85.40745    86.36300     6.10450
       596 20370.87965    87.32496    87.77060     5.99331
       597 20387.17635    86.76535    87.31756     5.99503
       598 20403.48610    85.45961    86.30508     6.03320
       599 20419.80888    84.79013    85.41373     6.06766
       600 20436.14473    84.16655    84.90781     6.08039
       601 20452.49365    83.98691    84.44758     6.09030
       602 20468.85564    84.50400    85.16475     6.02707
       603 20485.23073    84.37405    85.11455     6.01035
       604 20501.61891    83.42021    84.13196     6.05017
       605 20518.02021    82.65303    83.81144     6.04936
       606 20534.43462    82.40912    83.13048     6.07317
       607 20550.86217    82.76728    83.00215     6.06566
       608 20567.30286    83.67465    84.21265     5.97606
       609 20583.75670    84.11887    84.52207     5.94161
       610 20600.22371    83.49495    84.39068     5.93472
       611 20616.70389    82.71367    84.35004     5.92427
       612 20633.19725    82.28612    83.83608     5.94466
       613 20649.70381    82.13358    83.18008     5.97535
       614 20666.22357    82.13012    83.02193     5.97604
       615 20682.75655    82.29636    83.16472     5.95827
       616 20699.30275    82.93513    84.03259     5.89739
       617 20715.86220    84.46797    85.75623     5.78770
       618 20732.43489    86.05427    87.27524     5.69207
       619 20749.02083    85.91305    87.54941     5.66617
       620 20765.62005    85.20049    86.00007     5.74317
       621 20782.23255    86.12034    86.10635     5.72822
       622 20798.85833    88.26118    90.32280     5.49064
       623 20815.49742    88.19507    90.13780     5.49584
       624 20832.14982    85.93409    87.87427     5.61258
       625 20848.81554    84.01891    86.04255     5.70851
       626 20865.49459    83.09523    84.18490     5.80928
       627 20882.18699    82.77715    84.72276     5.77017
       628 20898.89274    82.80041    83.87096     5.81201
       629 20915.61185    83.27365    84.57459     5.76026
       630 20932.34434    84.72466    86.26041     5.65190
       631 20949.09021    87.33769    89.27178     5.47485
       632 20965.84949    90.14491    91.64661     5.33947
       633 20982.62217    93.13832    95.10981     5.15761
       634 20999.40826    94.93027    95.88673     5.10875
       635 21016.20779    96.84050    98.02543     4.99802
       636 21033.02076   100.79195   103.03824     4.77012
       637 21049.84717   100.54395   104.83281     4.68515
       638 21066.68705    95.42396    97.51684     4.97990
       639 21083.54040    92.04389    93.16727     5.16782
       640 21100.40723    91.96271    92.98917     5.16149
       641 21117.28756    92.24601    92.58853     5.16759
       642 21134.18139    90.53131    91.60313     5.20334
       643 21151.08873    87.46864    89.42624     5.29943
       644 21168.00961    85.34336    87.29057     5.39556
       645 21184.94401    84.88429    87.18084     5.38399
       646 21201.89197    86.47204    88.72722     5.28471
       647 21218.85348    89.82328    92.05599     5.09966
       648 21235.82856    91.26284    94.43856     4.96772
       649 21252.81723    89.37829    90.81691     5.11859
       650 21269.81948    87.55606    89.00354     5.18626
       651 21286.83534    86.51776    88.98146     5.16565
       652 21303.86481    85.09796    87.58957     5.21564
       653 21320.90790    83.73310    84.53903     5.35638
       654 21337.96462    82.92711    84.42219     5.34152
       655 21355.03499    82.56781    83.67853     5.36227
       656 21372.11902    82.44204    84.26099     5.31288
       657 21389.21672    82.44251    84.63102     5.27736
       658 21406.32809    82.49255    84.37597     5.27536
       659 21423.45315    82.55846    84.29392     5.26224
       660 21440.59192    82.72311    84.31933     5.24214
       661 21457.74439    83.19185    84.08237     5.23449
       662 21474.91059    84.60041    86.29788     5.09750
       663 21492.09051    88.28188    88.79715     4.95278
       664 21509.28419    94.81096    95.13815     4.64528
       665 21526.49161   100.62356   102.34552     4.33945
       666 21543.71281   100.42961   102.38298     4.31957
       667 21560.94778    96.09954    97.70041     4.47914
       668 21578.19654    90.78812    91.10642     4.73502
       669 21595.45909    86.68022    87.68830     4.86764
       670 21612.73546    84.41359    85.71900     4.93643
       671 21630.02565    83.41485    84.58068     4.96706
       672 21647.32967    83.16742    85.10119     4.91979
       673 21664.64753    83.63295    84.17709     4.95002
       674 21681.97925    84.78420    85.47357     4.87386
       675 21699.32483    85.64016    87.55583     4.76366
       676 21716.68429    85.11103    87.17323     4.77058
       677 21734.05764    84.06717    85.71034     4.82655
       678 21751.44489    83.67483    85.06906     4.84024
       679 21768.84604    84.44619    85.62124     4.79316
       680 21786.26112    86.13491    87.23660     4.69510
       681 21803.69013    87.19794    87.72953     4.64950
       682 21821.13308    87.82005    88.73196     4.57887
       683 21838.58999    89.57636    92.06288     4.40841
       684 21856.06086    90.35967    93.45896     4.32529
       685 21873.54571    88.47316    91.45180     4.38405
       686 21891.04454    86.58412    89.55161     4.44431
       687 21908.55738    87.19231    88.38259     4.47754
       688 21926.08423    91.26283    93.93173     4.23051
       689 21943.62509    96.43422    98.39051     4.04535
       690 21961.17999    99.39034   102.89259     3.87225
       691 21978.74894   102.62715   105.42736     3.77286
       692 21996.33194   104.65071   108.09319     3.67342
       693 22013.92900    99.74773   102.75166     3.82464
       694 22031.54015    92.43616    94.16650     4.11198
       695 22049.16538    87.73127    89.15821     4.29559
       696 22066.80471    86.14359    88.30026     4.31453
       697 22084.45815    87.75876    89.35027     4.25228
       698 22102.12572    92.85955    93.83170     4.05706
       699 22119.80742    97.14346    99.04816     3.85116
       700 22137.50327    94.95863    95.61500     3.95117
       701 22155.21327    89.98060    90.44655     4.12403
       702 22172.93744    86.90364    88.10900     4.19637
       703 22190.67579    86.91538    88.21551     4.17193
       704 22208.42833    89.76670    91.41047     4.02824
       705 22226.19507    93.23080    96.29915     3.83596
       706 22243.97603    95.07344    97.99387     3.76628
       707 22261.77121    96.50269    99.53213     3.70418
       708 22279.58063    96.15172    97.86024     3.74798
       709 22297.40429    95.62917    97.18983     3.75777
       710 22315.24222    99.41343    99.50965     3.66783
       711 22333.09441   102.61577   104.79192     3.49198
       712 22350.96088    98.09845   100.41872     3.61253
       713 22368.84165    90.98529    92.00752     3.88621
       714 22386.73673    86.31580    87.11253     4.06352
       715 22404.64612    84.10588    85.48679     4.12325
       716 22422.56983    83.12332    84.96918     4.14222
       717 22440.50789    82.65492    85.40964     4.12277
       718 22458.46030    82.41450    84.85924     4.14424
       719 22476.42706    82.29248    84.99920     4.13737
       720 22494.40820    82.24699    85.53526     4.11322
       721 22512.40373    82.25469    84.59526     4.14831
       722 22530.41365    82.33358    84.92196     4.12918
       723 22548.43799    82.58579    84.66525     4.13508
       724 22566.47674    83.43733    85.63865     4.09101
       725 22584.52992    86.00989    87.93204     3.99653
       726 22602.59754    90.80887    92.10862     3.83704
       727 22620.67962    94.13627    97.59598     3.64638
       728 22638.77616    92.21418    95.38809     3.71881
       729 22656.88718    88.26159    89.56513     3.92706
       730 22675.01269    85.36137    85.11368     4.10227
       731 22693.15270    83.92170    84.75822     4.11425
       732 22711.30723    83.42431    84.39572     4.12541
       733 22729.47627    83.43196    84.52089     4.11655
       734 22747.65985    83.96684    84.05970     4.13369
       735 22765.85798    86.10538    86.35550     4.03837
       736 22784.07067    92.48318    92.55307     3.80286
       737 22802.29792   104.17618   106.18934     3.37016
       738 22820.53976   114.08978   118.83833     3.04813
       739 22838.79619   115.82800   121.31912     2.99133
       740 22857.06723   110.29044   114.51603     3.14851
       741 22875.35288   100.15462   102.37601     3.47479
       742 22893.65317    91.60550    93.36498     3.76327
       743 22911.96809    86.95257    88.33642     3.94443
       744 22930.29766    84.76780    85.81897     4.03874
       745 22948.64190    83.54778    85.54326     4.04281
       746 22967.00082    82.81774    83.87881     4.10361
       747 22985.37442    82.43271    82.61782     4.14875
       748 23003.76272    82.27027    83.65760     4.09541
       749 23022.16573    82.26682    82.79439     4.12217
       750 23040.58346    82.51950    83.23858     4.09392
       751 23059.01593    83.53221    83.23206     4.08612
       752 23077.46314    86.21558    87.73239     3.89813
       753 23095.92511    90.30860    93.13207     3.69398
       754 23114.40185    92.41700    95.09941     3.61920
       755 23132.89337    90.34233    92.29263     3.70701
       756 23151.39968    87.15751    87.32859     3.88213
       757 23169.92080    85.70382    86.29328     3.91627
       758 23188.45674    85.87502    87.35697     3.86706
       759 23207.00751    86.18701    88.69762     3.80581
       760 23225.57311    86.02101    88.37820     3.80609
       761 23244.15357    85.22599    87.48510     3.82870
       762 23262.74889    84.20072    85.83370     3.88176
       763 23281.35909    83.24345    83.45073     3.96530
       764 23299.98418    82.52499    83.14348     3.96406
       765 23318.62417    82.13662    82.56150     3.97198
       766 23337.27907    82.01229    81.55083     3.99594
       767 23355.94889    82.10524    82.62280     3.93288
       768 23374.63365    82.67172    82.77847     3.90861
       769 23393.33336    84.53770    84.70507     3.81602
       770 23412.04802    88.22239    89.99849     3.60780
       771 23430.77766    91.08274    94.19722     3.45542
       772 23449.52228    89.85678    92.16058     3.50995
       773 23468.28190    87.01518    87.88283     3.64520
       774 23487.05653    85.40426    84.87703     3.74290
       775 23505.84617    86.18103    85.13106     3.71986
       776 23524.65085    90.37368    88.33465     3.59105
       777 23543.47057    96.32722    94.04540     3.39076
       778 23562.30535    97.72810    96.21601     3.31533
       779 23581.15519    94.73536    93.05297     3.40604
       780 23600.02011    94.25119    93.26544     3.39183
       781 23618.90013    97.88922    98.77849     3.21642
       782 23637.79525    98.99172   102.44583     3.10299
       783 23656.70549    94.29612    96.19484     3.26441
       784 23675.63085    88.63956    88.77637     3.48229
       785 23694.57136    85.24681    85.48406     3.57944
       786 23713.52701    84.16980    84.72495     3.59088
       787 23732.49783    85.35752    84.37232     3.59030
       788 23751.48383    89.18708    89.04204     3.41754
       789 23770.48502    93.40796    92.78707     3.28907
       790 23789.50141    93.15910    91.52301     3.31889
       791 23808.53301    89.46252    87.82432     3.42760
       792 23827.57984    86.98770    85.69181     3.48721
       793 23846.64190    88.14924    87.76459     3.40231
       794 23865.71921    92.14391    91.82281     3.25903
       795 23884.81179    94.10671    95.41288     3.13984
       796 23903.91964    91.24193    91.71605     3.23685
       797 23923.04277    86.93171    86.41059     3.39382
       798 23942.18121    84.06068    83.28895     3.48878
       799 23961.33495    82.83043    81.74131     3.53314
       800 23980.50402    82.68111    81.92475     3.51588
       801 23999.68842    83.05618    82.73919     3.47453
       802 24018.88817    83.19084    82.41166     3.47150
       803 24038.10328    83.07566    82.32742     3.45725
       804 24057.33377    83.86560    83.14099     3.41138
       805 24076.57963    86.97818    87.22169     3.25858
       806 24095.84090    92.03474    92.86793     3.07178
       807 24115.11757    94.45873    95.66213     2.97914
       808 24134.40967    91.56076    90.44939     3.11301
       809 24153.71719    87.12977    85.88478     3.24293
       810 24173.04017    84.35455    83.58527     3.31096
       811 24192.37860    83.71321    83.66701     3.30144
       812 24211.73250    84.64019    85.71936     3.22604
       813 24231.10189    85.66192    87.11198     3.17268
       814 24250.48677    85.30379    85.73813     3.20537
       815 24269.88716    84.73498    85.07312     3.21481
       816 24289.30307    86.24795    86.83619     3.14645
       817 24308.73451    90.59604    91.93197     2.98417
       818 24328.18150    94.10304    97.18676     2.83363
       819 24347.64404    92.23956    94.20521     2.90242
       820 24367.12216    87.68013    88.41459     3.05707
       821 24386.61586    84.22779    84.25942     3.17643
       822 24406.12515    82.56052    82.99312     3.20797
       823 24425.65005    82.02453    82.50338     3.21421
       824 24445.19057    82.08011    81.13990     3.24981
       825 24464.74672    82.41895    81.06175     3.24105
       826 24484.31852    83.13656    82.86026     3.16785
       827 24503.90597    84.56126    83.35841     3.13819
       828 24523.50910    86.44319    85.96560     3.04322
       829 24543.12791    87.63117    85.86571     3.03298
       830 24562.76241    87.82707    86.94481     2.98840
       831 24582.41262    86.76686    85.92893     3.00712
       832 24602.07855    85.15948    83.73265     3.06327
       833 24621.76021    84.57158    82.69352     3.08543
       834 24641.45762    86.33385    84.76449     3.01136
       835 24661.17079    92.17008    90.36064     2.84135
       836 24680.89972   102.60282   102.89230     2.52892
       837 24700.64444   110.42470   109.90701     2.37747
       838 24720.40496   106.54194   106.28090     2.44003
       839 24740.18128    96.54209    93.48080     2.72054
       840 24759.97343    88.61684    86.56988     2.89764
       841 24779.78141    84.51620    82.34486     3.01469
       842 24799.60523    82.91565    81.80343     3.02218
       843 24819.44491    82.51541    79.88158     3.07534
       844 24839.30047    82.32728    80.83307     3.03709
       845 24859.17191    81.87421    80.10587     3.05246
       846 24879.05925    81.34092    80.85009     3.02006
       847 24898.96250    80.97760    80.62652     3.01861
       848 24918.88167    80.82623    80.27864     3.02049
       849 24938.81677    80.88571    81.15524     2.98222
       850 24958.76782    81.33721    80.41386     2.99388
       851 24978.73484    82.47222    81.50492     2.94700
       852 24998.71783    84.04066    82.79898     2.89548
       853 25018.71680    84.97961    83.16397     2.87345
       854 25038.73177    86.07848    84.22871     2.83171
       855 25058.76276    90.12689    87.12961     2.74004
       856 25078.80977    96.72216    93.10274     2.57698
       857 25098.87282    98.96133    96.64543     2.48481
       858 25118.95192    94.05936    91.90664     2.58574
       859 25139.04708    87.71408    86.02542     2.72746
       860 25159.15832    83.66042    82.17886     2.82846
       861 25179.28564    81.74105    79.90492     2.89154
       862 25199.42907    80.89413    81.00882     2.85406
       863 25219.58861    80.49017    79.63041     2.89157
       864 25239.76428    80.27439    79.15472     2.90169
       865 25259.95610    80.15035    79.96452     2.87214
       866 25280.16406    80.08188    79.39769     2.88474
       867 25300.38819    80.07338    78.37866     2.91165
       868 25320.62850    80.13861    80.44626     2.84447
       869 25340.88501    80.27227    79.94772     2.85679
       870 25361.15771    80.33341    78.11256     2.90973
       871 25381.44664    80.23459    78.47881     2.89245
       872 25401.75180    80.10014    78.93679     2.87143
       873 25422.07320    80.03903    79.58507     2.84648
       874 25442.41086    80.07139    79.57913     2.84499
       875 25462.76479    80.24065    77.88891     2.89806
       876 25483.13500    80.81858    79.18274     2.86022
       877 25503.52151    82.46365    80.85876     2.81219
       878 25523.92432    85.47779    83.45131     2.73904
       879 25544.34346    87.94286    86.50223     2.65616
       880 25564.77894    87.20997    85.17217     2.69138
       881 25585.23076    84.58766    81.98681     2.78001
       882 25605.69894    82.49819    80.57526     2.82104
       883 25626.18350    81.63710    78.90461     2.87226
       884 25646.68445    81.91129    80.12831     2.83553
       885 25667.20180    83.75733    81.39099     2.79817
       886 25687.73556    88.46259    85.58370     2.68098
       887 25708.28575    96.53604    94.74580     2.45627
       888 25728.85238   103.27810   102.33677     2.29736
       889 25749.43546   101.50859   100.25246     2.34114
       890 25770.03501    93.85639    91.79113     2.53044
       891 25790.65103    86.98914    85.00465     2.70461
       892 25811.28356    83.12410    81.67751     2.79622
       893 25831.93258    81.36916    80.90740     2.81364
       894 25852.59813    80.59664    78.14235     2.89186
       895 25873.28021    80.23438    78.02886     2.88868
       896 25893.97883    80.05828    77.39401     2.90255
       897 25914.69401    79.98728    78.02138     2.87847
       898 25935.42577    79.97618    78.02662     2.87441
       899 25956.17411    80.01770    78.60982     2.85165
       900 25976.93905    80.12758    78.80053     2.84035
       901 25997.72060    80.38122    79.06321     2.82557
       902 26018.51878    81.06328    79.99928     2.78910
       903 26039.33359    82.80829    81.67654     2.73123
       904 26060.16506    86.02983    85.47240     2.61905
       905 26081.01319    89.39683    88.97737     2.52299
       906 26101.87800    91.05249    91.93977     2.44525
       907 26122.75950    93.58410    91.47630     2.44767
       908 26143.65771   101.71027    97.46604     2.30858
       909 26164.57264   112.77721   109.06876     2.08481
       910 26185.50430   114.17652   109.41255     2.07279
       911 26206.45270   104.42564    99.59133     2.24486
       912 26227.41786    94.19212    89.63916     2.45205
       913 26248.39980    88.62713    85.91801     2.53450
       914 26269.39852    86.29928    83.84512     2.57894
       915 26290.41403    85.67439    83.50200     2.57838
       916 26311.44637    86.68633    84.89462     2.53217
       917 26332.49552    88.63339    85.92283     2.49636
       918 26353.56152    91.21312    86.65557     2.46893
       919 26374.64437    94.02275    88.30536     2.41993
       920 26395.74408    93.32886    90.34637     2.36278
       921 26416.86068    88.87563    85.15039     2.47558
       922 26437.99417    84.49526    83.88322     2.49596
       923 26459.14456    81.99247    79.96043     2.58602
       924 26480.31188    81.11962    79.23538     2.59106
       925 26501.49613    81.56870    78.81499     2.58936
       926 26522.69733    83.65278    81.33060     2.51187
       927 26543.91548    87.39507    85.32484     2.40424
       928 26565.15062    91.06758    87.95255     2.33618
       929 26586.40274    91.27703    90.05934     2.28247
       930 26607.67186    87.66945    86.14392     2.36303
       931 26628.95800    83.65609    82.09352     2.45241
       932 26650.26116    81.14393    80.79117     2.47597
       933 26671.58137    79.94313    79.83216     2.49169
       934 26692.91864    79.40118    78.12287     2.52855
       935 26714.27297    79.13152    77.21004     2.54421
       936 26735.64439    78.97648    78.95238     2.48668
       937 26757.03290    78.87238    78.11798     2.49832
       938 26778.43853    78.79899    77.20414     2.51164
       939 26799.86128    78.74386    78.84462     2.45479
       940 26821.30117    78.70481    77.99265     2.46407
       941 26842.75821    78.65604    77.92835     2.45399
       942 26864.23242    78.62583    78.37132     2.43285
       943 26885.72380    78.60255    78.48622     2.42262
       944 26907.23238    78.58317    78.26249     2.42291
       945 26928.75817    78.56570    78.18829     2.41965
       946 26950.30118    78.55328    79.67717     2.37519
       947 26971.86142    78.54718    77.04623     2.43558
       948 26993.43891    78.55121    78.66635     2.38367
       949 27015.03366    78.60100    78.43754     2.37939
       950 27036.64568    78.71376    79.41864     2.34422
       951 27058.27500    78.84701    79.40480     2.33345
       952 27079.92162    78.93064    77.31949     2.37508
       953 27101.58556    78.93558    78.57155     2.33171
       954 27123.26683    79.02801    78.96293     2.31052
       955 27144.96544    79.46665    78.62262     2.30730
       956 27166.68141    80.40777    79.74050     2.26895
       957 27188.41476    81.67535    80.07895     2.25147
       958 27210.16549    82.78662    81.22357     2.21730
       959 27231.93362    83.03037    82.04709     2.19250
       960 27253.71917    82.02029    80.41301     2.22500
       961 27275.52214    80.68060    80.09384     2.22780
       962 27297.34256    79.77154    80.29200     2.21846
       963 27319.18044    79.31549    78.45228     2.25691
       964 27341.03578    79.15481    78.72404     2.24286
       965 27362.90861    79.25956    80.38887     2.19437
       966 27384.79894    79.66580    77.63216     2.24963
       967 27406.70677    80.24333    78.23271     2.22456
       968 27428.63214    80.57805    79.09057     2.19481
       969 27450.57505    80.53929    79.06628     2.18753
       970 27472.53551    80.63481    80.12883     2.15603
       971 27494.51353    81.76700    81.26098     2.12424
       972 27516.50914    85.46899    84.31941     2.05154
       973 27538.52235    93.17078    93.44568     1.87048
       974 27560.55317   102.67483   103.82809     1.69957
       975 27582.60161   106.32361   108.50261     1.62854
       976 27604.66769   100.96652   101.19825     1.72360
       977 27626.75143    92.61675    93.77206     1.83252
       978 27648.85283    86.82199    86.03957     1.96268
       979 27670.97191    85.11807    83.71019     1.99890
       980 27693.10869    88.26437    88.34526     1.90118
       981 27715.26318    97.64091    94.85508     1.78166
       982 27737.43539   110.70581   108.15308     1.58243
       983 27759.62533   116.63601   113.48489     1.50906
       984 27781.83303   109.60974   106.88429     1.58144
       985 27804.05850    98.45978    95.04718     1.73993
       986 27826.30175    92.27394    89.10348     1.82633
       987 27848.56279    94.70259    94.10569     1.73070
       988 27870.84164   105.21051   104.56331     1.56935
       989 27893.13831   115.92581   115.77326     1.42761
       990 27915.45282   114.76309   113.87708     1.44120
       991 27937.78519   103.43518   103.18102     1.56419
       992 27960.13541    92.18700    90.40095     1.74747
       993 27982.50352    85.56523    83.49331     1.86667
       994 28004.88953    82.79205    80.29383     1.92714
       995 28027.29344    82.48083    81.16723     1.90747
       996 28049.71527    84.82989    82.34957     1.88147
       997 28072.15504    91.08131    90.40212     1.73461
       998 28094.61277   100.27649    99.15639     1.59739
       999 28117.08846   105.80317   103.05952     1.53920
      1000 28139.58213   101.91756    97.70782     1.60620
      1001 28162.09379    93.25037    90.81923     1.70377
      1002 28184.62347    86.10998    84.46434     1.80349
      1003 28207.17117    82.21301    81.08888     1.85581
      1004 28229.73691    80.61591    78.72500     1.89142
      1005 28252.32069    80.35885    80.69480     1.84326
      1006 28274.92255    81.02932    79.83657     1.85258
      1007 28297.54249    82.03599    82.77878     1.79255
      1008 28320.18052    82.46479    82.75491     1.79024
      1009 28342.83667    82.53940    82.70769     1.78909
      1010 28365.51094    83.25677    83.72052     1.76812
      1011 28388.20335    84.34607    85.30259     1.73614
      1012 28410.91391    84.46653    84.18998     1.74991
      1013 28433.64264    83.89671    85.57007     1.71909
      1014 28456.38955    84.06115    83.94442     1.74054
      1015 28479.15467    85.69869    84.85211     1.71806
      1016 28501.93799    88.80780    88.99437     1.64333
      1017 28524.73954    91.30088    90.65186     1.61205
      1018 28547.55933    90.03209    89.51829     1.62492
      1019 28570.39738    86.15389    83.99649     1.71163
      1020 28593.25370    82.77284    81.97291     1.74427
      1021 28616.12830    81.17752    80.58868     1.76721
      1022 28639.02120    81.04831    81.17373     1.75401
      1023 28661.93242    81.53455    80.73044     1.75906
      1024 28684.86197    82.04027    81.60414     1.74046
      1025 28707.80985    83.52932    81.16822     1.74704
      1026 28730.77610    88.53378    87.98052     1.63106
      1027 28753.76072    98.62628    97.84665     1.48765
      1028 28776.76373   109.59241   107.38963     1.37055
      1029 28799.78514   111.33493   107.16522     1.37229
      1030 28822.82497   102.67677    99.94105     1.45835
      1031 28845.88323    92.13381    91.87060     1.56889
      1032 28868.95994    85.07051    84.18224     1.69152
      1033 28892.05511    81.62244    81.64145     1.73722
      1034 28915.16875    80.23945    79.43823     1.77909
      1035 28938.30088    79.83111    78.80780     1.79119
      1036 28961.45153    80.12471    81.03652     1.74791
      1037 28984.62069    81.75892    81.44348     1.73880
      1038 29007.80838    86.48752    87.24975     1.63954
      1039 29031.01463    95.73414    95.58438     1.51674
      1040 29054.23944   106.24816   106.18913     1.38514
      1041 29077.48283   108.91941   110.34469     1.34019
      1042 29100.74482   101.48229   101.32227     1.44500
      1043 29124.02542    91.50912    91.87747     1.57325
      1044 29147.32464    84.51763    83.30953     1.71072
      1045 29170.64250    80.96629    79.97774     1.77071
      1046 29193.97901    79.40310    79.67362     1.77554
      1047 29217.33419    78.69966    77.84808     1.80950
      1048 29240.70806    78.35346    77.43883     1.81757
      1049 29264.10063    78.16821    75.65565     1.85511
      1050 29287.51191    78.05552    76.73279     1.83738
      1051 29310.94192    77.98976    77.01152     1.83635
      1052 29334.39067    77.97578    76.97806     1.84085
      1053 29357.85818    78.02990    78.12681     1.82090
      1054 29381.34447    78.25154    79.18722     1.80325
      1055 29404.84954    78.96732    78.45105     1.82089
      1056 29428.37342    80.75086    81.64726     1.76345
      1057 29451.91612    83.74050    84.53160     1.71420
      1058 29475.47766    86.35657    85.53629     1.69711
      1059 29499.05804    86.24414    84.87442     1.70639
      1060 29522.65728    83.91390    82.97204     1.73680
      1061 29546.27541    81.34801    80.94853     1.77153
      1062 29569.91243    79.53253    77.58738     1.83544
      1063 29593.56836    78.49916    77.93958     1.83021
      1064 29617.24322    77.99199    77.92189     1.83433
      1065 29640.93701    77.75366    77.44228     1.84726
      1066 29664.64976    77.63861    78.16642     1.83429
      1067 29688.38148    77.57939    77.27172     1.85085
      1068 29712.13218    77.54806    76.42567     1.86456
      1069 29735.90189    77.53346    75.79003     1.87379
      1070 29759.69061    77.53129    77.12839     1.84364
      1071 29783.49836    77.54030    76.74645     1.84974
      1072 29807.32516    77.56111    76.10706     1.86211
      1073 29831.17102    77.59765    77.50340     1.83420
      1074 29855.03596    77.64635    75.71188     1.87141
      1075 29878.91999    77.71255    75.34739     1.88087
      1076 29902.82312    77.87236    76.77891     1.85279
      1077 29926.74538    78.16293    76.19828     1.86386
      1078 29950.68678    78.64460    78.85448     1.80772
      1079 29974.64733    79.56433    78.91186     1.80155
      1080 29998.62705    81.64657    81.52287     1.74784
      1081 30022.62595    86.25883    86.78053     1.65306
      1082 30046.64405    93.71027    94.08165     1.53860
      1083 30070.68136   100.04901    99.70247     1.45978
      1084 30094.73791    99.35407    98.26651     1.47440
      1085 30118.81370    92.95428    92.30619     1.55232
      1086 30142.90875    86.62371    87.75185     1.61818
      1087 30167.02308    83.25385    81.79247     1.71599
      1088 30191.15670    82.30156    82.02354     1.71175
      1089 30215.30962    81.86822    82.10235     1.71005
      1090 30239.48187    80.86431    79.74187     1.75091
      1091 30263.67345    79.65551    79.85356     1.74581
      1092 30287.88439    78.76664    78.19858     1.77380
      1093 30312.11470    78.29439    78.55271     1.76431
      1094 30336.36439    78.08454    79.70282     1.73978
      1095 30360.63348    77.99963    77.51600     1.77686
      1096 30384.92199    77.97463    77.39537     1.77406
      1097 30409.22993    77.98407    77.60287     1.76497
      1098 30433.55731    78.01881    76.78472     1.77602
      1099 30457.90416    78.07682    78.35942     1.74173
      1100 30482.27048    78.15986    78.86196     1.72812
      1101 30506.65630    78.27285    78.21881     1.73541
      1102 30531.06162    78.43551    78.58189     1.72340
      1103 30555.48647    78.64670    76.99272     1.74710
      1104 30579.93086    78.93965    77.03026     1.74055
      1105 30604.39481    79.39542    78.51528     1.70778
      1106 30628.87832    80.21286    79.80908     1.68033
      1107 30653.38142    81.72148    79.50955     1.68311
      1108 30677.90413    84.52340    83.32716     1.61702
      1109 30702.44645    90.08071    89.76356     1.51703
      1110 30727.00841   101.56432   101.44244     1.36320
      1111 30751.59002   121.38438   122.31667     1.15343
      1112 30776.19129   142.46047   144.95505     0.98755
      1113 30800.81224   147.11378   148.73674     0.96231
      1114 30825.45289   132.25107   131.42075     1.07374
      1115 30850.11325   114.14379   112.88628     1.22685
      1116 30874.79334   105.41523   103.96307     1.31617
      1117 30899.49318   106.73782   106.07547     1.29019
      1118 30924.21277   109.69761   107.11355     1.27565
      1119 30948.95214   106.33019   102.93408     1.31652
      1120 30973.71131    99.05028    97.26933     1.37807
      1121 30998.49028    93.97667    93.80109     1.41690
      1122 31023.28907    93.32209    92.88315     1.42401
      1123 31048.10770    96.28939    94.15606     1.40310
      1124 31072.94618   103.69643   102.36803     1.30218
      1125 31097.80454   116.99969   117.22420     1.15398
      1126 31122.68279   130.14631   130.78705     1.04446
      1127 31147.58093   130.53598   130.76222     1.04180
      1128 31172.49900   118.03463   118.15654     1.13647
      1129 31197.43700   103.60941   104.03267     1.26575
      1130 31222.39495    93.37616    92.76975     1.39135
      1131 31247.37286    87.25902    87.17660     1.46165
      1132 31272.37076    83.80266    84.42442     1.49803
      1133 31297.38866    82.04680    81.97436     1.53368
      1134 31322.42657    81.55221    83.00318     1.51663
      1135 31347.48451    82.42398    84.08307     1.49833
      1136 31372.56250    85.33145    86.50779     1.45906
      1137 31397.66055    90.56793    91.60834     1.38491
      1138 31422.77867    96.19250    97.30563     1.31088
      1139 31447.91690    98.55357    98.72651     1.29143
      1140 31473.07523    98.80601    98.91899     1.28733
      1141 31498.25369   103.07374   103.01328     1.24148
      1142 31523.45229   113.92571   113.96595     1.13455
      1143 31548.67106   124.17949   121.84796     1.06679
      1144 31573.90999   122.34283   120.55979     1.07358
      1145 31599.16912   109.71318   108.23135     1.17743
      1146 31624.44846    96.28001    95.40565     1.31095
      1147 31649.74801    87.51036    87.33360     1.41127
      1148 31675.06781    83.18138    84.56281     1.44784
      1149 31700.40787    81.40301    83.23156     1.46483
      1150 31725.76819    80.77708    82.95257     1.46633
      1151 31751.14881    80.70729    80.25499     1.50421
      1152 31776.54973    81.09789    82.09453     1.47076
      1153 31801.97097    82.37177    83.73849     1.44114
      1154 31827.41254    86.06419    85.79033     1.40760
      1155 31852.87447    95.20560    95.04301     1.28623
      1156 31878.35677   112.10371   109.90960     1.13064
      1157 31903.85946   132.50172   130.91899     0.96592
      1158 31929.38255   142.20622   140.51885     0.90449
      1159 31954.92605   132.43782   132.17924     0.95386
      1160 31980.48999   113.24850   112.52373     1.09852
      1161 32006.07439    96.92013    96.79319     1.24995
      1162 32031.67924    87.37457    88.10327     1.35140
      1163 32057.30459    82.90399    84.01616     1.40239
      1164 32082.95043    81.00543    82.45654     1.41917
      1165 32108.61679    80.18083    79.97158     1.45015
      1166 32134.30369    79.84167    80.40972     1.43751
      1167 32160.01113    79.87530    81.07838     1.42235
      1168 32185.73914    80.57129    82.23518     1.40130
      1169 32211.48773    82.54390    82.27904     1.39790
      1170 32237.25692    86.29386    88.41634     1.31253
      1171 32263.04672    90.85349    90.87645     1.27876
      1172 32288.85716    93.00462    94.48945     1.23228
      1173 32314.68825    90.83675    91.11390     1.26647
      1174 32340.54000    86.73530    88.96337     1.28769
      1175 32366.41243    83.70380    83.90450     1.34842
      1176 32392.30556    83.20323    84.29807     1.33772
      1177 32418.21940    85.54427    86.30774     1.30518
      1178 32444.15398    89.85628    91.99399     1.23012
      1179 32470.10930    93.13020    93.78430     1.20534
      1180 32496.08539    92.19139    92.50728     1.21698
      1181 32522.08226    88.07889    87.98061     1.26892
      1182 32548.09992    83.89311    86.30554     1.28872
      1183 32574.13840    81.18482    81.76590     1.34733
      1184 32600.19772    79.88264    81.46790     1.34913
      1185 32626.27787    79.41891    79.84935     1.36824
      1186 32652.37890    79.33316    80.50930     1.35238
      1187 32678.50080    79.30872    81.13296     1.33587
      1188 32704.64360    79.18317    80.46955     1.33827
      1189 32730.80731    79.02028    80.67265     1.33036
      1190 32756.99196    78.94248    79.72107     1.33962
      1191 32783.19755    79.03675    80.72841     1.32236
      1192 32809.42411    79.37498    81.27043     1.31232
      1193 32835.67165    79.96426    80.38804     1.32279
      1194 32861.94019    80.57735    81.93367     1.30133
      1195 32888.22974    80.80625    81.09819     1.31194
      1196 32914.54032    80.60077    80.65279     1.31658
      1197 32940.87196    80.29297    82.14038     1.29327
      1198 32967.22465    80.20987    81.27942     1.29974
      1199 32993.59843    80.51769    81.71761     1.28773
      1200 33019.99331    81.48250    83.05647     1.26439
      1201 33046.40931    84.02681    83.37223     1.25583
      1202 33072.84643    90.20405    91.31118     1.15953
      1203 33099.30471   102.59037   104.23153     1.03219
      1204 33125.78416   120.94105   122.93991     0.89060
      1205 33152.28478   137.79649   137.61439     0.80309
      1206 33178.80661   141.00091   142.31101     0.77710
      1207 33205.34966   127.87779   127.91886     0.85283
      1208 33231.91394   109.27001   110.45170     0.96862
      1209 33258.49947    94.78994    95.65501     1.09514
      1210 33285.10627    86.65216    88.03388     1.17356
      1211 33311.73435    82.90199    83.98507     1.21905
      1212 33338.38374    81.29815    82.12076     1.23965
      1213 33365.05445    80.60932    81.90713     1.23858
      1214 33391.74649    80.36222    82.55704     1.22574
      1215 33418.45989    80.35717    80.39835     1.24752
      1216 33445.19465    80.41348    79.81630     1.24858
      1217 33471.95081    80.35632    81.34801     1.22340
      1218 33498.72837    80.17484    81.07695     1.22273
      1219 33525.52735    80.01842    79.96118     1.23424
      1220 33552.34778    80.01472    80.48234     1.22625
      1221 33579.18965    80.30054    82.85076     1.19643
      1222 33606.05301    81.20904    82.01111     1.20644
      1223 33632.93785    83.36707    84.50888     1.17601
      1224 33659.84420    87.17234    89.81764     1.11626
      1225 33686.77207    91.69968    93.15404     1.08118
      1226 33713.72149    94.04344    96.58289     1.04651
      1227 33740.69247    92.23254    95.01484     1.05865
      1228 33767.68502    88.19603    89.13191     1.11396
      1229 33794.69917    84.60238    84.91422     1.15550
      1230 33821.73493    82.49416    85.09433     1.14906
      1231 33848.79232    81.63838    82.76201     1.17331
      1232 33875.87135    81.50909    80.99013     1.19243
      1233 33902.97205    81.79768    83.16041     1.16374
      1234 33930.09443    82.49429    83.38362     1.15833
      1235 33957.23850    84.05661    84.18534     1.14555
      1236 33984.40429    87.98026    86.57730     1.11463
      1237 34011.59182    97.26871    93.47572     1.04034
      1238 34038.80109   114.83655   113.07352     0.87930
      1239 34066.03213   138.41771   136.71326     0.74119
      1240 34093.28496   155.75834   154.89798     0.66087
      1241 34120.55958   154.16727   154.46637     0.66089
      1242 34147.85603   138.63564   135.44629     0.74131
      1243 34175.17432   124.18220   122.13345     0.80951
      1244 34202.51446   120.05397   118.54290     0.82821
      1245 34229.87647   123.72338   123.49775     0.79708
      1246 34257.26037   124.40339   122.70442     0.80079
      1247 34284.66618   116.12885   116.12673     0.84066
      1248 34312.09391   104.14290   104.90253     0.91908
      1249 34339.54359    95.27025    97.49919     0.97927
      1250 34367.01522    92.31733    94.14624     1.00832
      1251 34394.50883    94.59151    96.77558     0.98255
      1252 34422.02444    98.86614   100.04801     0.95146
      1253 34449.56206   100.23865    99.61699     0.95105
      1254 34477.12171    96.66291    95.70372     0.98093
      1255 34504.70341    91.01973    90.94647     1.02183
      1256 34532.30717    86.43996    86.77314     1.06049
      1257 34559.93301    83.93391    86.60031     1.05853
      1258 34587.58096    83.26075    84.14156     1.08007
      1259 34615.25103    84.36503    84.16200     1.07561
      1260 34642.94323    87.89706    90.63814     1.00696
      1261 34670.65758    94.32069    94.58340     0.96805
      1262 34698.39411   101.92712   103.64264     0.89194
      1263 34726.15282   105.83730   110.73818     0.83945
      1264 34753.93374   102.65833   107.24700     0.86104
      1265 34781.73689    95.48026    96.04114     0.94560
      1266 34809.56228    88.80863    90.11058     0.99723
      1267 34837.40993    84.56468    87.57194     1.02026
      1268 34865.27986    82.45943    84.60372     1.04818
      1269 34893.17208    81.56443    83.04316     1.06200
      1270 34921.08662    81.21721    83.81132     1.05114
      1271 34949.02349    81.12128    82.92727     1.05797
      1272 34976.98271    81.20938    83.74599     1.04722
      1273 35004.96429    81.61267    82.81896     1.05554
      1274 35032.96827    82.78308    85.24223     1.02850
      1275 35060.99464    85.52577    88.30998     0.99580
      1276 35089.04344    90.40221    91.93944     0.95942
      1277 35117.11467    96.35504    98.77325     0.89969
      1278 35145.20836    99.76570   101.09900     0.87973
      1279 35173.32453    97.81430   101.44967     0.87517
      1280 35201.46319    92.44171    94.17297     0.93147
      1281 35229.62436    87.19023    88.91557     0.97712
      1282 35257.80806    83.75079    86.57919     0.99801
      1283 35286.01431    81.99865    85.20511     1.00980
      1284 35314.24312    81.21444    82.32446     1.03827
      1285 35342.49451    80.88724    84.74903     1.01309
      1286 35370.76851    80.74128    82.24940     1.03955
      1287 35399.06512    80.67307    81.70745     1.04605
      1288 35427.38437    80.64739    83.67348     1.02554
      1289 35455.72628    80.64963    82.43107     1.03822
      1290 35484.09086    80.66717    83.15875     1.02870
      1291 35512.47814    80.72175    81.99891     1.03766
      1292 35540.88812    80.80906    83.22226     1.02094
      1293 35569.32083    80.91904    81.30972     1.03697
      1294 35597.77629    81.05445    81.02804     1.03710
      1295 35626.25451    81.24302    82.53883     1.01997
      1296 35654.75551    81.54201    83.86577     1.00612
      1297 35683.27931    82.14240    84.39880     1.00065
      1298 35711.82594    83.63049    84.64737     0.99790
      1299 35740.39540    87.13843    87.03654     0.97442
      1300 35768.98771    93.80191    94.83991     0.90578
      1301 35797.60290   102.94909   103.44063     0.84038
      1302 35826.24099   109.99593   112.58453     0.78007
      1303 35854.90198   109.27176   110.74828     0.79053
      1304 35883.58590   101.83513   104.36908     0.83145
      1305 35912.29277    93.34308    93.62276     0.91210
      1306 35941.02260    87.32413    88.66361     0.95447
      1307 35969.77542    84.13919    86.35607     0.97419
      1308 35998.55124    82.72762    84.79377     0.98624
      1309 36027.35008    82.13346    83.57262     0.99480
      1310 36056.17196    81.86940    83.72710     0.98949
      1311 36085.01690    81.74192    80.85939     1.01451
      1312 36113.88491    81.68119    82.82245     0.99058
      1313 36142.77602    81.66044    82.26412     0.99300
      1314 36171.69024    81.66800    80.98450     1.00338
      1315 36200.62760    81.69825    80.26578     1.00816
      1316 36229.58810    81.74852    83.57923     0.97188
      1317 36258.57177    81.80433    81.78758     0.98677
      1318 36287.57863    81.89053    84.31282     0.95979
      1319 36316.60869    82.00320    82.76660     0.97316
      1320 36345.66198    82.14393    83.30680     0.96610
      1321 36374.73851    82.31941    84.55743     0.95106
      1322 36403.83830    82.54159    82.26691     0.96883
      1323 36432.96137    82.83387    83.78672     0.94998
      1324 36462.10774    83.25037    85.07028     0.93501
      1325 36491.27742    83.91866    84.75829     0.93582
      1326 36520.47044    85.12328    87.50941     0.90921
      1327 36549.68682    87.34504    88.21291     0.90132
      1328 36578.92657    91.46855    90.24187     0.88265
      1329 36608.18971    98.95796    98.35595     0.81905
      1330 36637.47626   111.36411   108.69081     0.75040
      1331 36666.78624   128.23197   128.56991     0.64607
      1332 36696.11967   143.14613   139.38479     0.59945
      1333 36725.47657   145.46705   142.03666     0.58747
      1334 36754.85695   134.49298   132.36681     0.62378
      1335 36784.26084   121.47889   120.85354     0.67433
      1336 36813.68824   117.13941   116.55354     0.69450
      1337 36843.13919   125.15007   125.48085     0.64888
      1338 36872.61371   140.42786   137.81815     0.59466
      1339 36902.11180   149.91978   146.88241     0.55919
      1340 36931.63349   143.41675   139.28677     0.58378
      1341 36961.17879   125.94329   122.66256     0.65087
      1342 36990.74774   108.44328   108.40224     0.72355
      1343 37020.34033    96.72818    97.73757     0.79126
      1344 37049.95661    91.11458    92.23432     0.83254
      1345 37079.59657    90.05310    90.94689     0.84346
      1346 37109.26025    92.57270    92.60346     0.83037
      1347 37138.94766    98.03919    98.82682     0.78392
      1348 37168.65882   104.47245   105.18437     0.74028
      1349 37198.39374   107.72134   108.93187     0.71488
      1350 37228.15246   104.98915   107.74400     0.71841
      1351 37257.93498    98.56442    99.67647     0.76505
      1352 37287.74133    92.24352    94.68905     0.79594
      1353 37317.57152    87.93903    88.57986     0.83894
      1354 37347.42558    85.64933    87.29809     0.84614
      1355 37377.30352    84.61960    85.62100     0.85733
      1356 37407.20536    84.19860    85.93113     0.85273
      1357 37437.13113    84.04569    84.73175     0.86134
      1358 37467.08083    84.02809    83.84474     0.86749
      1359 37497.05449    84.10683    85.58350     0.85125
      1360 37527.05214    84.28364    88.42102     0.82657
      1361 37557.07378    84.59600    84.33919     0.85771
      1362 37587.11944    85.17501    86.40771     0.83676
      1363 37617.18913    86.44548    88.42450     0.81686
      1364 37647.28289    89.50452    90.16083     0.80059
      1365 37677.40071    96.29088    95.96889     0.75722
      1366 37707.54263   108.35662   109.83801     0.67227
      1367 37737.70867   124.13004   123.13490     0.60637
      1368 37767.89883   136.29727   135.21872     0.55644
      1369 37798.11315   135.80495   133.11713     0.56301
      1370 37828.35164   123.66688   123.43858     0.60104
      1371 37858.61432   108.81381   108.49275     0.67201
      1372 37888.90122    97.77765    98.49958     0.72912
      1373 37919.21234    92.36334    92.59862     0.76657
      1374 37949.54771    91.80306    92.73302     0.76321
      1375 37979.90735    94.64086    95.24736     0.74390
      1376 38010.29127    98.79400   100.65130     0.70788
      1377 38040.69950   101.02740   102.70596     0.69379
      1378 38071.13206    99.13429    99.63260     0.70994
      1379 38101.58897    94.55115    97.84363     0.71889
      1380 38132.07024    90.04024    89.89621     0.77005
      1381 38162.57590    86.96175    87.82023     0.78271
      1382 38193.10596    85.33035    86.95772     0.78749
      1383 38223.66044    84.57981    87.51746     0.78193
      1384 38254.23937    84.24391    84.26030     0.80600
      1385 38284.84276    84.08230    85.71935     0.79343
      1386 38315.47064    83.99673    86.40747     0.78692
      1387 38346.12301    83.95111    85.79911     0.78949
      1388 38376.79991    83.93133    84.89149     0.79304
      1389 38407.50135    83.95584    85.96247     0.78024
      1390 38438.22735    83.98655    85.43193     0.77989
      1391 38468.97793    84.01997    85.95002     0.77208
      1392 38499.75312    84.06729    85.77822     0.77033
      1393 38530.55292    84.12858    86.47326     0.76282
      1394 38561.37736    84.20520    84.30900     0.77674
      1395 38592.22646    84.29962    85.54568     0.76466
      1396 38623.10024    84.41582    85.88129     0.75916
      1397 38653.99872    84.55989    87.49872     0.74401
      1398 38684.92192    84.74122    87.82437     0.73835
      1399 38715.86986    84.97536    84.32841     0.76063
      1400 38746.84256    85.29404    87.90892     0.73253
      1401 38777.84003    85.78425    86.26886     0.74372
      1402 38808.86230    86.71437    87.95680     0.73202
      1403 38839.90939    88.80291    89.98145     0.71797
      1404 38870.98132    93.45445    93.70285     0.69195
      1405 38902.07811   102.29453   105.33155     0.62234
      1406 38933.19977   115.37572   118.70883     0.55706
      1407 38964.34633   128.73000   132.17676     0.50364
      1408 38995.51781   134.35634   132.96541     0.49857
      1409 39026.71422   128.11818   127.62406     0.51476
      1410 39057.93559   115.54185   116.33007     0.55604
      1411 39089.18194   104.17024   106.70480     0.59678
      1412 39120.45328    97.85612    98.48973     0.63654
      1413 39151.74965    96.71334    98.79919     0.63236
      1414 39183.07105    98.62751    99.00408     0.62924
      1415 39214.41750   100.41617   101.67269     0.61343
      1416 39245.78904    99.57048    99.94143     0.62105
      1417 39277.18567    96.48734    97.59841     0.63202
      1418 39308.60742    93.25130    94.33005     0.64828
      1419 39340.05430    91.39066    93.15141     0.65225
      1420 39371.52635    91.46799    92.53012     0.65315
      1421 39403.02357    93.77092    94.85670     0.63757
      1422 39434.54599    98.61654    98.18371     0.61737
      1423 39466.09362   105.46243   105.17991     0.58008
      1424 39497.66650   111.53719   113.51159     0.54115
      1425 39529.26463   112.78292   113.93284     0.53759
      1426 39560.88804   108.93932   108.52347     0.55898
      1427 39592.53675   104.50427   106.87650     0.56484
      1428 39624.21078   104.54927   104.41306     0.57480
      1429 39655.91015   112.16244   111.96253     0.53976
      1430 39687.63488   126.70638   128.82873     0.47620
      1431 39719.38499   141.90067   140.33121     0.44045
      1432 39751.16050   147.08469   143.91190     0.42991
      1433 39782.96142   137.81256   137.16789     0.44817
      1434 39814.78779   121.26111   122.73398     0.49411
      1435 39846.63962   106.12954   107.98550     0.55183
      1436 39878.51694    96.17254    99.08945     0.59242
      1437 39910.41975    90.93691    94.67174     0.61315
      1438 39942.34808    88.53072    91.02916     0.63050
      1439 39974.30196    87.43945    89.58099     0.63555
      1440 40006.28140    86.88558    89.27957     0.63421
      1441 40038.28643    86.55720    85.59788     0.65446
      1442 40070.31706    86.34057    88.05693     0.63706
      1443 40102.37331    86.19111    86.23630     0.64641
      1444 40134.45521    86.08771    87.62653     0.63578
      1445 40166.56278    86.01839    86.00772     0.64337
      1446 40198.69603    85.97563    88.21396     0.62664
      1447 40230.85498    85.95459    85.01715     0.64237
      1448 40263.03967    85.95224    87.41833     0.62375
      1449 40295.25010    85.95682    84.43112     0.63881
      1450 40327.48630    85.95797    86.53450     0.62359
      1451 40359.74829    86.00129    88.78267     0.60921
      1452 40392.03609    86.06881    88.41251     0.61118
      1453 40424.34971    86.15887    88.24201     0.61189
      1454 40456.68919    86.27548    87.99459     0.61196
      1455 40489.05455    86.42601    87.04895     0.61450
      1456 40521.44579    86.62217    87.55696     0.60718
      1457 40553.86295    86.87448    88.88936     0.59505
      1458 40586.30604    87.24668    88.50688     0.59301
      1459 40618.77508    87.86487    87.95481     0.59229
      1460 40651.27010    89.11364    89.41647     0.58105
      1461 40683.79112    91.94100    93.46089     0.55741
      1462 40716.33815    98.02733    99.09883     0.52838
      1463 40748.91122   109.09252   109.37241     0.48361
      1464 40781.51035   124.85590   122.22925     0.43725
      1465 40814.13556   140.55292   138.62070     0.38970
      1466 40846.78687   147.12045   138.08881     0.38963
      1467 40879.46430   139.79267   133.85088     0.39944
      1468 40912.16787   124.35909   122.66066     0.43037
      1469 40944.89760   109.12835   106.46522     0.48543
      1470 40977.65352    98.39291    98.88285     0.51535
      1471 41010.43564    92.38392    91.14380     0.55015
      1472 41043.24399    89.50905    88.69610     0.56069
      1473 41076.07859    88.18120    90.87603     0.54674
      1474 41108.93945    87.52352    87.80120     0.55993
      1475 41141.82660    87.16209    84.92516     0.57333
      1476 41174.74006    86.92888    86.78118     0.56124
      1477 41207.67985    86.76535    86.60991     0.56038
      1478 41240.64600    86.64653    84.11630     0.57236
      1479 41273.63852    86.55900    86.80785     0.55530
      1480 41306.65743    86.49433    89.46489     0.53910
      1481 41339.70275    86.44680    87.16595     0.54858
      1482 41372.77451    86.41237    85.53676     0.55529
      1483 41405.87273    86.38813    85.21735     0.55533
      1484 41438.99743    86.37194    87.75710     0.53971
      1485 41472.14863    86.36219    88.07059     0.53499
      1486 41505.32635    86.36001    87.66038     0.53321
      1487 41538.53061    86.36519    84.98866     0.54290
      1488 41571.76143    86.37033    88.12505     0.52358
      1489 41605.01884    86.37739    86.43019     0.52961
      1490 41638.30286    86.38686    85.67343     0.53179
      1491 41671.61350    86.39857    87.12948     0.52323
      1492 41704.95079    86.41230    83.12526     0.54300
      1493 41738.31475    86.42789    85.64924     0.52903
      1494 41771.70540    86.44522    86.02644     0.52609
      1495 41805.12277    86.46424    84.99661     0.52957
      1496 41838.56687    86.48493    89.67766     0.50420
      1497 41872.03772    86.50737    86.84708     0.51594
      1498 41905.53535    86.53171    84.98526     0.52379
      1499 41939.05978    86.55816    85.38636     0.52047
      1500 41972.61103    86.58710    86.22611     0.51527
      1501 42006.18912    86.61902    89.02747     0.50094
      1502 42039.79407    86.65469    88.71165     0.50183
      1503 42073.42590    86.69522    86.77175     0.51045
      1504 42107.08464    86.74223    84.72149     0.51942
      1505 42140.77031    86.79841    90.63399     0.48860
      1506 42174.48293    86.86920    88.31297     0.49683
      1507 42208.22251    86.96887    87.54809     0.49830
      1508 42241.98909    87.13902    89.02629     0.48935
      1509 42275.78268    87.44994    90.74653     0.47933
      1510 42309.60331    88.17162    86.95830     0.49391
      1511 42343.45099    89.58332    87.79453     0.48700
      1512 42377.32575    91.80959    89.12543     0.47835
      1513 42411.22761    94.49399    93.97831     0.45568
      1514 42445.15659    96.54086    97.14109     0.44124
      1515 42479.11272    96.65095    96.37044     0.44190
      1516 42513.09601    94.81446    91.78754     0.45809
      1517 42547.10649    92.24837    90.86913     0.46072
      1518 42581.14417    90.03607    87.42389     0.47519
      1519 42615.20909    88.59444    88.11460     0.47160
      1520 42649.30125    87.83552    86.77290     0.47672
      1521 42683.42070    87.49870    86.09528     0.47875
      1522 42717.56743    87.37075    85.70259     0.47938
      1523 42751.74149    87.33856    84.87516     0.48202
      1524 42785.94288    87.36859    84.04606     0.48453
      1525 42820.17163    87.46487    88.44534     0.46237
      1526 42854.42777    87.68500    87.70972     0.46284
      1527 42888.71131    88.19303    85.39559     0.47010
      1528 42923.02228    89.22545    86.39970     0.46233
      1529 42957.36070    90.97752    89.53361     0.44585
      1530 42991.72659    93.30773    89.62724     0.44303
      1531 43026.11997    95.45082    92.98920     0.42751
      1532 43060.54087    96.19433    93.51634     0.42360
      1533 43094.98930    95.04410    93.34480     0.42201
      1534 43129.46529    92.82467    90.20692     0.43140
      1535 43163.96886    90.64189    85.88064     0.44646
      1536 43198.50004    89.08054    87.51096     0.43760
      1537 43233.05884    88.18766    88.60419     0.43216
      1538 43267.64528    87.75395    88.03548     0.43427
      1539 43302.25940    87.56063    85.36182     0.44561
      1540 43336.90121    87.47297    87.02906     0.43857
      1541 43371.57073    87.42913    86.95174     0.43868
      1542 43406.26799    87.40520    88.43773     0.43198
      1543 43440.99300    87.39222    88.32074     0.43148
      1544 43475.74579    87.38639    87.54836     0.43322
      1545 43510.52639    87.38571    88.54010     0.42720
      1546 43545.33481    87.39171    90.08078     0.41881
      1547 43580.17108    87.40174    85.47149     0.43507
      1548 43615.03522    87.41179    84.99153     0.43466
      1549 43649.92724    87.42348    85.67813     0.42956
      1550 43684.84719    87.43714    81.43084     0.44589
      1551 43719.79506    87.45278    85.15340     0.42893
      1552 43754.77090    87.47046    83.22308     0.43672
      1553 43789.77472    87.49031    84.98660     0.42937
      1554 43824.80654    87.51256    86.16912     0.42468
      1555 43859.86638    87.53759    87.16180     0.42106
      1556 43894.95428    87.56592    88.24636     0.41765
      1557 43930.07024    87.59829    87.87497     0.42067
      1558 43965.21429    87.63387    87.39265     0.42458
      1559 44000.38647    87.67128    87.12762     0.42697
      1560 44035.58678    87.72265    86.29790     0.43028
      1561 44070.81524    87.78659    85.84740     0.43056
      1562 44106.07190    87.86672    86.87230     0.42393
      1563 44141.35675    87.97178    86.17208     0.42442
      1564 44176.66984    88.12348    86.63938     0.42101
      1565 44212.01118    88.38168    86.08610     0.42274
      1566 44247.38078    88.89849    86.38940     0.42183
      1567 44282.77869    89.98649    87.98345     0.41608
      1568 44318.20491    92.11085    90.26899     0.40781
      1569 44353.65948    95.66327    94.04926     0.39452
      1570 44389.14240   100.49291   100.89543     0.37221
      1571 44424.65372   105.40220   102.32862     0.36798
      1572 44460.19344   108.23180   104.31374     0.36213
      1573 44495.76160   107.64693   105.58712     0.35828
      1574 44531.35820   104.41188   103.70502     0.36356
      1575 44566.98329   100.01886    98.95081     0.37848
      1576 44602.63688    95.78948    94.30102     0.39466
      1577 44638.31899    92.55293    91.48688     0.40469
      1578 44674.02964    90.46213    89.21613     0.41226
      1579 44709.76887    89.27610    88.01089     0.41547
      1580 44745.53668    88.66348    86.18438     0.42100
      1581 44781.33311    88.35978    86.46362     0.41817
      1582 44817.15818    88.20535    88.23260     0.41044
      1583 44853.01190    88.12207    87.45683     0.41374
      1584 44888.89431    88.07773    86.26400     0.41954
      1585 44924.80543    88.06224    87.76547     0.41499
      1586 44960.74527    88.07976    86.89038     0.41917
      1587 44996.71387    88.15628    89.84375     0.40687
      1588 45032.71124    88.37194    87.19690     0.41525
      1589 45068.73741    88.85440    86.08837     0.41798
      1590 45104.79240    89.77371    85.43979     0.41980
      1591 45140.87623    91.27000    87.57575     0.41167
      1592 45176.98893    93.09714    92.76097     0.39347
      1593 45213.13053    94.62119    88.22809     0.41155
      1594 45249.30103    94.97816    91.90202     0.39831
      1595 45285.50047    93.94043    94.05177     0.39033
      1596 45321.72887    92.18678    90.27707     0.40342
      1597 45357.98625    90.50627    90.83779     0.40031
      1598 45394.27264    89.30007    88.27864     0.40848
      1599 45430.58806    88.75296    87.61482     0.40928
      1600 45466.93253    88.48773    89.39653     0.40081
      1601 45503.30608    88.34396    86.98610     0.40875
      1602 45539.70872    88.27654    85.38186     0.41390
      1603 45576.14049    88.24435    88.51250     0.39990
      1604 45612.60140    88.22922    83.56863     0.41659
      1605 45649.09148    88.26385    89.17966     0.39242
      1606 45685.61076    88.31921    85.87134     0.40310
      1607 45722.15924    88.33812    86.50081     0.39975
      1608 45758.73697    88.35617    86.88950     0.39750
      1609 45795.34396    88.37790    86.42892     0.39804
      1610 45831.98024    88.40389    85.69947     0.39918
      1611 45868.64582    88.46391    87.65205     0.39011
      1612 45905.34074    88.51195    82.84840     0.40643
      1613 45942.06501    88.55519    86.60523     0.39004
      1614 45978.81866    88.60223    85.24365     0.39371
      1615 46015.60172    88.65480    86.54456     0.38827
      1616 46052.41420    88.71376    86.17923     0.38919
      1617 46089.25613    88.77998    87.79139     0.38297
      1618 46126.12754    88.84229    86.79690     0.38630
      1619 46163.02844    88.92273    88.58967     0.37945
      1620 46199.95886    89.01579    89.63108     0.37502
      1621 46236.91883    89.12209    86.62685     0.38456
      1622 46273.90836    89.24621    85.99909     0.38568
      1623 46310.92749    89.38917    87.44802     0.37952
      1624 46347.97623    89.55463    86.20541     0.38309
      1625 46385.05461    89.74771    84.12091     0.38989
      1626 46422.16266    89.97524    83.19479     0.39258
      1627 46459.30039    90.24669    86.47892     0.37985
      1628 46496.46783    90.57636    85.89590     0.38170
      1629 46533.66500    90.98989    86.30465     0.37987
      1630 46570.89193    91.54319    89.95722     0.36621
      1631 46608.14865    92.36820    87.13464     0.37446
      1632 46645.43516    93.75583    89.17457     0.36563
      1633 46682.75151    96.24919    93.94914     0.34886
      1634 46720.09771   100.65413    94.16052     0.34716
      1635 46757.47379   107.84663   103.63455     0.31933
      1636 46794.87977   118.28210   115.96619     0.28940
      1637 46832.31567   131.23135   129.21607     0.26300
      1638 46869.78153   144.36956   140.23884     0.24440
      1639 46907.27735   154.82463   149.91281     0.23005
      1640 46944.80317   159.71820   154.12758     0.22409
      1641 46982.35902   157.07171   152.70484     0.22551
      1642 47019.94490   150.18798   148.11901     0.23122
      1643 47057.56086   147.56362   147.41758     0.23171
      1644 47095.20691   158.51838   157.62361     0.21786
      1645 47132.88307   189.66303   186.65902     0.18674
      1646 47170.58938   240.67525   239.36790     0.14831
      1647 47208.32585   299.61698   297.16779     0.12089
      1648 47246.09251   341.43919   329.38375     0.10947
      1649 47283.88939   341.20928   323.37097     0.11122
      1650 47321.71650   301.11714   293.97469     0.12152
      1651 47359.57387   247.38244   238.96928     0.14736
      1652 47397.46153   204.72141   202.89169     0.17122
      1653 47435.37950   184.66221   178.63498     0.19194
      1654 47473.32780   185.51453   188.95373     0.18183
      1655 47511.30647   196.34944   194.95508     0.17623
      1656 47549.31551   202.81735   202.23572     0.17005
      1657 47587.35496   196.54107   189.27912     0.18024
      1658 47625.42485   181.32443   173.03252     0.19498
      1659 47663.52519   166.12170   163.34091     0.20461
      1660 47701.65601   156.08341   156.65727     0.21157
      1661 47739.81733   150.06362   147.86687     0.22194
      1662 47778.00919   143.27075   145.29627     0.22477
      1663 47816.23159   133.09242   129.12992     0.24876
      1664 47854.48458   121.14954   120.42578     0.26374
      1665 47892.76817   110.25831   113.52846     0.27667
      1666 47931.08238   102.09621   104.29479     0.29627
      1667 47969.42725    96.86229    98.81770     0.30864
      1668 48007.80279    93.85692    99.51568     0.30515
      1669 48046.20903    92.20004    92.05842     0.32331
      1670 48084.64600    91.23898    92.58312     0.31904
      1671 48123.11371    90.61098    89.13988     0.32519
      1672 48161.61221    90.30373    95.61985     0.30323
      1673 48200.14150    89.99835    89.81100     0.31437
      1674 48238.70161    89.71112    91.59220     0.30617
      1675 48277.29257    89.46564    92.22721     0.30225
      1676 48315.91440    89.25676    93.60265     0.29736
      1677 48354.56714    89.07800    89.37537     0.30755
      1678 48393.25079    88.92406    87.59248     0.31236
      1679 48431.96539    88.79082    84.79336     0.32099
      1680 48470.71096    88.67508    86.53259     0.31790
      1681 48509.48753    88.57433    89.69676     0.31145
      1682 48548.29512    88.48669    88.54707     0.31717
      1683 48587.13376    88.41061    85.38721     0.32908
      1684 48626.00346    88.34496    87.09249     0.32597
      1685 48664.90427    88.28739    86.95663     0.32797
      1686 48703.83619    88.22426    87.96779     0.32602
      1687 48742.79926    88.18309    89.81885     0.32141
      1688 48781.79350    88.13499    87.39598     0.32976
      1689 48820.81893    88.08844    88.90657     0.32535
      1690 48859.87559    88.07425    91.18595     0.31774
      1691 48898.96349    88.07164    89.96398     0.31968
      1692 48938.08266    88.07875    88.86197     0.32068
      1693 48977.23313    88.09612    89.34740     0.31674
      1694 49016.41491    88.12487    89.45963     0.31401
      1695 49055.62804    88.16661    89.03572     0.31313
      1696 49094.87255    88.11972    85.54004     0.32175
      1697 49134.14845    88.07706    86.22985     0.31821
      1698 49173.45576    88.16778    87.41385     0.31398
      1699 49212.79453    88.29860    85.75749     0.31905
      1700 49252.16476    88.46578    85.19963     0.32141
      1701 49291.56650    88.68042    90.44556     0.30661
      1702 49330.99975    88.96782    89.45262     0.30939
      1703 49370.46455    89.39004    90.42182     0.30614
      1704 49409.96092    90.10131    87.50313     0.31394
      1705 49449.48889    91.39103    88.26633     0.31140
      1706 49489.04848    93.95476    91.27318     0.30268
      1707 49528.63972    98.64660    95.51599     0.29130
      1708 49568.26263   106.07921   103.39307     0.27247
      1709 49607.91724   115.95211   114.71872     0.24923
      1710 49647.60357   126.26663   123.54510     0.23351
      1711 49687.32166   133.18555   129.92050     0.22308
      1712 49727.07152   133.19468   128.51760     0.22460
      1713 49766.85317   126.76333   119.88549     0.23786
      1714 49806.66665   117.79038   114.73476     0.24660
      1715 49846.51199   110.09167   109.39398     0.25680
      1716 49886.38920   106.14942   107.53075     0.26051
      1717 49926.29831   107.77322   108.58741     0.25795
      1718 49966.23935   117.30650   119.29907     0.23708
      1719 50006.21234   138.03755   138.24151     0.20740
      1720 50046.21731   172.56611   172.14231     0.16975
      1721 50086.25428   219.17852   223.35619     0.13336
      1722 50126.32329   268.01872   266.38762     0.11289
      1723 50166.42434   300.20902   287.60920     0.10480
      1724 50206.55748   297.91422   285.22494     0.10539
      1725 50246.72273   262.89303   255.31582     0.11661
      1726 50286.92011   213.66284   209.22777     0.13978
      1727 50327.14964   167.73910   162.24584     0.17535
      1728 50367.41136   133.92078   138.17046     0.20118
      1729 50407.70529   113.03075   114.45291     0.23539
      1730 50448.03146   101.73544   102.85710     0.25602
      1731 50488.38988    96.06383    94.25985     0.27357
      1732 50528.78059    93.17239    92.94135     0.27552
      1733 50569.20362    91.52659    90.95475     0.28000
      1734 50609.65898    90.44261    94.49979     0.27167
      1735 50650.14671    89.64591    90.17110     0.28292
      1736 50690.66683    89.02395    87.43230     0.29077
      1737 50731.21936    88.52274    87.02583     0.29228
      1738 50771.80434    88.11061    88.72160     0.28804
      1739 50812.42178    87.76637    87.09305     0.29282
      1740 50853.07172    87.47488    88.84486     0.28807
      1741 50893.75417    87.22498    90.99277     0.28189
      1742 50934.46918    87.00831    89.07607     0.28598
      1743 50975.21675    86.81851    88.57247     0.28612
      1744 51015.99693    86.65064    84.85713     0.29450
      1745 51056.80972    86.50086    86.48058     0.28765
      1746 51097.65517    86.36611    86.34106     0.28603
      1747 51138.53330    86.24397    84.95964     0.28862
      1748 51179.44412    86.13247    82.80265     0.29443
      1749 51220.38768    86.03000    84.74677     0.28932
      1750 51261.36399    85.93526    84.37245     0.29090
      1751 51302.37308    85.84717    87.25312     0.28335
      1752 51343.41498    85.76482    87.47939     0.28248
      1753 51384.48971    85.68746    90.02783     0.27506
      1754 51425.59730    85.61446    88.19071     0.27911
      1755 51466.73778    85.54526    87.37290     0.28075
      1756 51507.91117    85.47945    87.75358     0.27903
      1757 51549.11750    85.41661    89.35006     0.27358
      1758 51590.35679    85.35639    89.04452     0.27222
      1759 51631.62908    85.29851    87.58672     0.27351
      1760 51672.93438    85.24270    88.20721     0.26995
      1761 51714.27273    85.16979    86.52196     0.27269
      1762 51755.64415    85.09698    85.60487     0.27376
      1763 51797.04866    85.07522    84.73766     0.27488
      1764 51838.48630    85.05736    86.89412     0.26827
      1765 51879.95709    85.01586    88.20073     0.26407
      1766 51921.46106    84.97303    86.56083     0.26720
      1767 51962.99822    84.93095    85.32508     0.26934
      1768 52004.56862    84.88982    84.62188     0.26997
      1769 52046.17228    84.84962    85.98929     0.26531
      1770 52087.80922    84.81032    87.03678     0.26150
      1771 52129.47946    84.77187    83.90724     0.26789
      1772 52171.18305    84.73423    84.31563     0.26564
      1773 52212.91999    84.58906    82.09977     0.27020
      1774 52254.69033    84.46623    82.58448     0.26810
      1775 52296.49408    84.42838    82.72653     0.26695
      1776 52338.33128    84.39997    84.20069     0.26210
      1777 52380.20194    84.37307    87.12360     0.25399
      1778 52422.10610    84.34671    85.18792     0.25792
      1779 52464.04379    84.32074    85.56524     0.25681
      1780 52506.01502    84.29518    85.70335     0.25663
      1781 52548.01983    84.27010    84.41812     0.25978
      1782 52590.05825    84.24555    84.65074     0.25870
      1783 52632.13030    84.22159    86.22277     0.25367
      1784 52674.23600    84.19830    85.69925     0.25336
      1785 52716.37539    84.17576    85.05710     0.25370
      1786 52758.54849    84.15405    82.30208     0.25987
      1787 52800.75533    84.13331    86.87075     0.24903
      1788 52842.99593    84.11365    85.63384     0.25254
      1789 52885.27033    84.09521    86.34301     0.25153
      1790 52927.57855    84.07818    86.35132     0.25177
      1791 52969.92061    84.06276    85.31016     0.25383
      1792 53012.29655    84.04920    82.90604     0.25885
      1793 53054.70638    84.03777    82.84350     0.25820
      1794 53097.15015    84.02884    85.22991     0.25169
      1795 53139.62787    84.02281    83.60636     0.25485
      1796 53182.13957    84.02020    87.30310     0.24519
      1797 53224.68528    84.02164    83.71081     0.25288
      1798 53267.26503    84.02790    87.64737     0.24288
      1799 53309.87884    84.03994    87.65659     0.24203
      1800 53352.52675    84.05901    84.18110     0.24892
      1801 53395.20877    84.08665    82.56277     0.25114
      1802 53437.92493    84.12496    84.45331     0.24498
      1803 53480.67527    84.17655    83.45350     0.24595
      1804 53523.45981    84.24494    86.77860     0.23720
      1805 53566.27858    84.33495    80.51370     0.25079
      1806 53609.13161    84.45358    83.61239     0.24307
      1807 53652.01891    84.61216    85.88233     0.23800
      1808 53694.94053    84.83296    87.66472     0.23428
      1809 53737.89648    85.16748    87.76599     0.23419
      1810 53780.88680    85.73994    84.51635     0.24128
      1811 53823.91150    86.82838    87.83966     0.23332
      1812 53866.97063    88.96692    87.35833     0.23390
      1813 53910.06421    92.98108    95.71452     0.21704
      1814 53953.19226    99.79635   100.36963     0.20892
      1815 53996.35482   109.90501   106.32026     0.19924
      1816 54039.55190   122.60568   123.37882     0.17530
      1817 54082.78354   135.35046   139.83779     0.15678
      1818 54126.04977   143.76411   144.70990     0.15163
      1819 54169.35061   143.79869   142.25106     0.15328
      1820 54212.68609   135.49326   137.99937     0.15648
      1821 54256.05624   122.81341   119.13001     0.17650
      1822 54299.46108   110.05150   110.30521     0.18726
      1823 54342.90065    99.80334    94.13816     0.21286
      1824 54386.37497    92.83208    94.22891     0.21238
      1825 54429.88407    88.67778    91.79681     0.21700
      1826 54473.42798    86.42442    91.37314     0.21776
      1827 54517.00672    85.24366    89.63199     0.22068
      1828 54560.62033    84.59430    87.77394     0.22355
      1829 54604.26882    84.19168    85.60191     0.22752
      1830 54647.95224    83.90716    83.00509     0.23319
      1831 54691.67060    83.68691    88.99793     0.22021
      1832 54735.42394    83.50757    84.35278     0.22948
      1833 54779.21227    83.35734    88.11711     0.22039
      1834 54823.03564    83.22907    86.44175     0.22271
      1835 54866.89407    83.11791    82.16703     0.23090
      1836 54910.78759    83.02017    86.69225     0.21998
      1837 54954.71622    83.01174    82.66826     0.22744
      1838 54998.67999    82.95375    79.06423     0.23459
      1839 55042.67894    82.88803    82.63412     0.22537
      1840 55086.71308    82.82677    81.96326     0.22555
      1841 55130.78245    82.77047    82.71930     0.22258
      1842 55174.88708    82.71853    83.59757     0.21970
      1843 55219.02698    82.67038    83.43151     0.21910
      1844 55263.20221    82.62553    87.25008     0.21034
      1845 55307.41277    82.58359    84.49246     0.21475
      1846 55351.65870    82.54423    82.16047     0.21860
      1847 55395.94003    82.50719    87.73031     0.20663
      1848 55440.25678    82.47227    84.60262     0.21202
      1849 55484.60898    82.49960    85.67189     0.20919
      1850 55528.99667    82.50057    82.18822     0.21523
      1851 55573.41987    82.47727    82.56463     0.21335
      1852 55617.87860    82.45329    82.63692     0.21255
      1853 55662.37291    82.43078    83.52153     0.21071
      1854 55706.90280    82.40998    82.47165     0.21300
      1855 55751.46833    82.39091    84.35195     0.20917
      1856 55796.06950    82.37360    85.27304     0.20677
      1857 55840.70636    82.35809    85.52084     0.20494
      1858 55885.37892    82.34443    83.83933     0.20633
      1859 55930.08723    82.33269    83.95552     0.20417
      1860 55974.83129    82.32296    77.28281     0.21641
      1861 56019.61116    82.31538    80.14823     0.21005
      1862 56064.42685    82.31009    82.58692     0.20564
      1863 56109.27839    82.30726    82.36900     0.20692
      1864 56154.16581    82.30710    78.81902     0.21520
      1865 56199.08915    82.30988    81.76603     0.20985
      1866 56244.04842    82.31589    83.42795     0.20706
      1867 56289.04366    82.32549    78.86814     0.21693
      1868 56334.07489    82.33908    83.60626     0.20714
      1869 56379.14215    82.35716    80.34735     0.21401
      1870 56424.24546    82.38032    79.97978     0.21531
      1871 56469.38486    82.40663    81.97651     0.21188
      1872 56514.56037    82.39386    82.66029     0.21117
      1873 56559.77202    82.43089    84.08983     0.20830
      1874 56605.01983    82.48441    84.56919     0.20656
      1875 56650.30385    82.54917    83.35856     0.20774
      1876 56695.62409    82.62645    80.83098     0.21175
      1877 56740.98059    82.71860    84.47655     0.20367
      1878 56786.37338    82.82878    83.33256     0.20571
      1879 56831.80248    82.96102    81.86346     0.20875
      1880 56877.26792    83.12060    82.64469     0.20711
      1881 56922.76973    83.31459    81.68962     0.20875
      1882 56968.30795    83.55303    84.82456     0.20220
      1883 57013.88259    83.85181    84.98923     0.20163
      1884 57059.49370    84.24066    84.04900     0.20311
      1885 57105.14130    84.78440    84.93764     0.20061
      1886 57150.82541    85.63166    88.39885     0.19340
      1887 57196.54607    87.10586    85.76679     0.19783
      1888 57242.30331    89.82904    88.73447     0.19286
      1889 57288.09715    94.80274    98.84925     0.17682
      1890 57333.92763   103.28543   106.25922     0.16618
      1891 57379.79477   116.30041   117.01267     0.15236
      1892 57425.69860   133.78955   132.56006     0.13592
      1893 57471.63916   153.70731   150.02534     0.12124
      1894 57517.61647   171.49181   164.38407     0.11138
      1895 57563.63057   180.86165   177.18140     0.10399
      1896 57609.68147   177.61070   169.49700     0.10816
      1897 57655.76922   163.59883   160.83104     0.11352
      1898 57701.89383   144.87481   146.05068     0.12393
      1899 57748.05535   127.26599   128.94470     0.13841
      1900 57794.25379   114.53753   122.40154     0.14466
      1901 57840.48919   108.51084   116.34565     0.15062
      1902 57886.76159   109.74986   116.46122     0.14986
      1903 57933.07100   118.06334   120.60409     0.14492
      1904 57979.41745   132.39422   132.06780     0.13369
      1905 58025.80099   150.20895   148.00985     0.12072
      1906 58072.22163   166.90772   159.28922     0.11280
      1907 58118.67940   176.24517   167.73228     0.10746
      1908 58165.17435   173.61270   166.06794     0.10821
      1909 58211.70649   160.18378   159.29954     0.11206
      1910 58258.27585   141.51926   139.85206     0.12531
      1911 58304.88247   123.09041   120.95573     0.14145
      1912 58351.52638   108.16722   110.18615     0.15229
      1913 58398.20760    97.75795    97.22091     0.16819
      1914 58444.92617    91.32333    90.12489     0.17810
      1915 58491.68211    87.68443    89.23111     0.17854
      1916 58538.47545    85.70896    85.42560     0.18351
      1917 58585.30623    84.60674    80.68414     0.19062
      1918 58632.17448    83.93099    82.79473     0.18595
      1919 58679.08022    83.46468    83.92368     0.18365
      1920 58726.02348    83.11165    80.82757     0.18964
      1921 58773.00430    82.82947    80.94226     0.19059
      1922 58820.02270    82.59733    82.24363     0.18923
      1923 58867.07872    82.40311    84.22072     0.18617
      1924 58914.17239    82.23867    79.61565     0.19461
      1925 58961.30372    82.09811    84.91642     0.18417
      1926 59008.47277    81.97691    86.25035     0.18110
      1927 59055.67954    81.87165    82.36152     0.18724
      1928 59102.92409    81.77961    81.09361     0.18921
      1929 59150.20643    81.69867    84.66838     0.18287
      1930 59197.52659    81.62713    80.28738     0.19081
      1931 59244.88461    81.56360    84.59394     0.18298
      1932 59292.28052    81.50697    87.26859     0.17841
      1933 59339.71435    81.45630    83.46224     0.18478
      1934 59387.18612    81.41085    87.65218     0.17729
      1935 59434.69587    81.36997    83.14590     0.18447
      1936 59482.24362    81.33312    81.60579     0.18672
      1937 59529.82942    81.29986    83.29611     0.18326
      1938 59577.45328    81.26983    81.48059     0.18595
      1939 59625.11524    81.24267    84.59921     0.17979
      1940 59672.81534    81.21810    82.03878     0.18340
      1941 59720.55359    81.19589    81.43397     0.18354
      1942 59768.33003    81.24125    79.53423     0.18622
      1943 59816.14470    81.28334    81.77009     0.18185
      1944 59863.99761    81.28533    85.09875     0.17584
      1945 59911.88881    81.27664    81.27140     0.18192
      1946 59959.81832    81.26860    85.57530     0.17444
      1947 60007.78617    81.27557    82.21170     0.17999
      1948 60055.79240    81.28423    81.54378     0.18111
      1949 60103.83704    81.28377    84.20036     0.17656
      1950 60151.92011    81.28309    81.41494     0.18131
      1951 60200.04164    81.24461    86.75975     0.17196
      1952 60248.20168    81.19686    83.33726     0.17675
      1953 60296.40024    81.19935    81.89839     0.17806
      1954 60344.63736    81.20694    83.81299     0.17373
      1955 60392.91307    81.21625    82.13389     0.17554
      1956 60441.22740    81.22683    80.39803     0.17770
      1957 60489.58038    81.23870    83.55573     0.17188
      1958 60537.97204    81.25187    81.80626     0.17427
      1959 60586.40242    81.26641    85.10026     0.16828
      1960 60634.87154    81.28233    81.54178     0.17320
      1961 60683.37944    81.29969    79.14179     0.17637
      1962 60731.92615    81.32529    77.82391     0.17802
      1963 60780.51169    81.31170    81.25941     0.17179
      1964 60829.13610    81.28782    82.32960     0.16968
      1965 60877.79940    81.31116    81.53159     0.17041
      1966 60926.50164    81.33978    83.01259     0.16750
      1967 60975.24285    81.37069    81.91116     0.16876
      1968 61024.02304    81.40360    83.85801     0.16523
      1969 61072.84226    81.43871    81.21772     0.16920
      1970 61121.70053    81.47620    83.72920     0.16527
      1971 61170.59789    81.51631    84.69209     0.16409
      1972 61219.53437    81.55931    78.25154     0.17498
      1973 61268.51000    81.60549    92.03537     0.15370
      1974 61317.52481    81.65520    84.52468     0.16437
      1975 61366.57883    81.70888    84.90396     0.16305
      1976 61415.67209    81.76702    85.51174     0.16123
      1977 61464.80463    81.83014    81.60932     0.16646
      1978 61513.97647    81.89892    82.24713     0.16478
      1979 61563.18765    81.97413    82.70265     0.16368
      1980 61612.43820    82.05672    83.99859     0.16153
      1981 61661.72815    82.14778    82.57670     0.16360
      1982 61711.05753    82.24869    85.96737     0.15797
      1983 61760.42638    82.36107    89.90448     0.15176
      1984 61809.83472    82.63073    86.61340     0.15558
      1985 61859.28259    82.83473    83.90731     0.15860
      1986 61908.77002    83.00648    83.48741     0.15812
      1987 61958.29703    83.19767    86.45137     0.15272
      1988 62007.86367    83.41679    83.45039     0.15607
      1989 62057.46996    83.67065    83.82301     0.15519
      1990 62107.11594    83.96787    79.31623     0.16215
      1991 62156.80163    84.32064    82.70071     0.15728
      1992 62206.52707    84.74800    84.00678     0.15562
      1993 62256.29229    85.28470    84.89030     0.15480
      1994 62306.09733    86.00251    83.79577     0.15700
      1995 62355.94220    87.05643    86.31178     0.15398
      1996 62405.82696    88.76856    92.73743     0.14563
      1997 62455.75162    91.74646    93.39827     0.14477
      1998 62505.71622    96.98703    95.69247     0.14148
      1999 62555.72079   105.84959   106.80126     0.12841
      2000 62605.76537   119.74739   127.70410     0.10976
      2001 62655.84998   139.48985   139.07197     0.10148
      2002 62705.97466   164.41726   163.37522     0.08782
      2003 62756.13944   191.63720   189.27596     0.07687
      2004 62806.34435   215.71448   208.30382     0.07042
      2005 62856.58943   229.76748   224.69758     0.06566
      2006 62906.87470   229.39424   225.13525     0.06545
      2007 62957.20020   216.36908   209.83032     0.06963
      2008 63007.56596   196.55188   191.86101     0.07531
      2009 63057.97201   175.23498   173.58115     0.08224
      2010 63108.41839   155.23293   152.22705     0.09231
      2011 63158.90513   137.61662   136.54622     0.10158
      2012 63209.43225   122.90340   126.37540     0.10879
      2013 63259.99980   111.30865   115.22118     0.11775
      2014 63310.60780   102.67576   107.02969     0.12494
      2015 63361.25628    96.61733    97.78383     0.13400
      2016 63411.94529    92.66706    92.11658     0.13994
      2017 63462.67484    90.36692    88.93876     0.14331
      2018 63513.44498    89.33392    93.16254     0.13743
      2019 63564.25574    89.29762    97.90148     0.13156
      2020 63615.10714    90.07650    92.06469     0.13813
      2021 63665.99923    91.49638    94.65443     0.13510
      2022 63716.93203    93.29084    91.34982     0.13923
      2023 63767.90557    95.03005   101.76349     0.12732
      2024 63818.91990    96.13907    98.22326     0.13087
      2025 63869.97503    96.13371    99.71325     0.12853
      2026 63921.07101    94.98845    97.84781     0.12928
      2027 63972.20787    93.14549   100.51387     0.12503
      2028 64023.38564    91.15703    90.54150     0.13460
      2029 64074.60435    89.42916    91.09992     0.13294
      2030 64125.86403    88.16427    87.53078     0.13648
      2031 64177.16472    87.39386    81.46163     0.14382
      2032 64228.50645    87.04621    84.68115     0.13953
      2033 64279.88926    87.01724    87.92380     0.13585
      2034 64331.31317    87.22010    87.86172     0.13638
      2035 64382.77822    87.60836    87.14367     0.13745
      2036 64434.28444    88.18554    84.78734     0.14011
      2037 64485.83187    89.02273    93.35973     0.12899
      2038 64537.42053    90.30665    90.84256     0.13097
      2039 64589.05047    92.43651    88.93628     0.13251
      2040 64640.72171    96.16740   100.93589     0.11942
      2041 64692.43429   102.74657   103.25987     0.11716
      2042 64744.18824   113.91059   118.45941     0.10458
      2043 64795.98359   131.55941   132.34553     0.09522
      2044 64847.82037   156.99107   162.17604     0.07973
      2045 64899.69863   189.80941   195.39694     0.06744
      2046 64951.61839   226.86080   232.51738     0.05752
      2047 65003.57968   261.61222   275.96015     0.04911
      2048 65055.58255   284.74786   284.96001     0.04768
      2049 65107.62701   287.91901   288.48005     0.04712
      2050 65159.71312   269.86422   277.86552     0.04871
      2051 65211.84089   237.45639   237.00268     0.05628
      2052 65264.01036   200.21409   200.97467     0.06520
      2053 65316.22157   165.64275   165.42436     0.07731
      2054 65368.47454   137.89572   141.65718     0.08824
      2055 65420.76932   118.09227   116.60792     0.10395
      2056 65473.10594   105.29180   111.22011     0.10821
      2057 65525.48442    97.64390    98.77818     0.11956
      2058 65577.90481    93.29123    93.33135     0.12529
      2059 65630.36714    90.82421    88.35047     0.13085
      2060 65682.87143    89.35497    91.12379     0.12755
      2061 65735.41773    88.39772    89.54593     0.12940
      2062 65788.00606    87.71254    84.03348     0.13598
      2063 65840.63647    87.18698    92.95455     0.12485
      2064 65893.30897    86.76717    90.39464     0.12713
      2065 65946.02362    86.34588    89.83681     0.12692
      2066 65998.78044    86.01172    90.38852     0.12508
      2067 66051.57946    85.77679    85.93671     0.12873
      2068 66104.42073    85.58341    87.07965     0.12608
      2069 66157.30426    85.42156    86.01826     0.12628
      2070 66210.23011    85.26354    84.04081     0.12787
      2071 66263.19829    85.14410    85.87358     0.12532
      2072 66316.20885    85.04808    84.94717     0.12608
      2073 66369.26182    84.96759    87.29226     0.12326
      2074 66422.35723    84.90004    87.46315     0.12328
      2075 66475.49511    84.84355    87.56904     0.12356
      2076 66528.67551    85.16542    87.25851     0.12423
      2077 66581.89845    85.20869    85.83189     0.12575
      2078 66635.16397    85.19533    86.15878     0.12463
      2079 66688.47210    85.18425    85.74821     0.12401
      2080 66741.82288    85.17886    90.72109     0.11764
      2081 66795.21634    85.17890    88.62782     0.11937
      2082 66848.65251    85.18386    88.19270     0.11973
      2083 66902.13143    85.19331    91.51861     0.11637
      2084 66955.65314    85.20266    83.70590     0.12492
      2085 67009.21766    85.21413    86.52464     0.12111
      2086 67062.82503    85.23495    83.22066     0.12396
      2087 67116.47529    85.25952    83.04175     0.12343
      2088 67170.16847    85.28725    81.75536     0.12457
      2089 67223.90461    85.31798    90.45410     0.11491
      2090 67277.68373    85.35160    85.01202     0.12055
      2091 67331.50588    85.38803    87.02015     0.11815
      2092 67385.37108    85.42721    87.94179     0.11721
      2093 67439.27938    85.46915    82.03976     0.12429
      2094 67493.23080    85.51381    80.41226     0.12696
      2095 67547.22539    85.56121    92.66237     0.11351
      2096 67601.26317    85.61141    86.66555     0.11960
      2097 67655.34418    85.66448    86.45939     0.11943
      2098 67709.46845    85.72056    89.66648     0.11567
      2099 67763.63603    85.77972    87.05815     0.11829
      2100 67817.84694    86.07054    86.51852     0.11894
      2101 67872.10122    86.35706    87.84210     0.11780
      2102 67926.39890    86.45548    88.40224     0.11761
      2103 67980.74002    86.54429    88.19984     0.11821
      2104 68035.12461    86.63681    87.05012     0.11962
      2105 68089.55271    86.73448    86.24583     0.12043
      2106 68144.02435    86.83781    86.44695     0.11963
      2107 68198.53957    86.94731    84.17829     0.12096
      2108 68253.09840    87.06356    81.09341     0.12296
      2109 68307.70088    87.18721    78.22173     0.12488
      2110 68362.34704    87.26277    85.36283     0.11561
      2111 68417.03692    87.27459    82.16516     0.11875
      2112 68471.77055    87.41955    85.87439     0.11503
      2113 68526.54796    87.58689    81.24422     0.12078
      2114 68581.36920    87.76744    90.49890     0.11132
      2115 68636.23430    87.96192    88.40966     0.11379
      2116 68691.14328    88.17217    89.39870     0.11300
      2117 68746.09620    88.40035    85.18520     0.11742
      2118 68801.09308    88.64904    89.99202     0.11154
      2119 68856.13395    88.92128    87.90773     0.11259
      2120 68911.21886    89.22071    90.38312     0.10907
      2121 68966.34783    89.55171    84.21120     0.11478
      2122 69021.52091    89.91955    82.41645     0.11623
      2123 69076.73813    90.33065    84.19465     0.11353
      2124 69131.99952    90.79292    85.75416     0.11089
      2125 69187.30512    91.31616    91.37993     0.10434
      2126 69242.65496    91.91263    88.44137     0.10594
      2127 69298.04909    92.59793    85.62291     0.10766
      2128 69353.48753    93.39264    89.48284     0.10343
      2129 69408.97032    94.32554    80.04268     0.11259
      2130 69464.49749    95.44113    90.30499     0.10275
      2131 69520.06909    96.81745    86.39309     0.10656
      2132 69575.68514    98.60622    90.04455     0.10324
      2133 69631.34569   101.11439    90.31872     0.10283
      2134 69687.05077   104.94869    96.21377     0.09742
      2135 69742.80041   111.22761    99.63819     0.09445
      2136 69798.59465   121.81141   111.30663     0.08619
      2137 69854.43353   139.40799   120.26611     0.08066
      2138 69910.31707   167.32188   151.92572     0.06577
      2139 69966.24533   208.62241   194.82811     0.05252
      2140 70022.21832   264.70660   250.78532     0.04154
      2141 70078.23610   333.57766   337.64673     0.03137
      2142 70134.29869   408.38607   406.09321     0.02622
      2143 70190.40613   476.76489   479.89923     0.02227
      2144 70246.55845   522.17048   534.46953     0.02001
      2145 70302.75570   530.09200   523.76482     0.02033
      2146 70358.99790   497.76343   493.67062     0.02142
      2147 70415.28510   436.35409   438.31258     0.02388
      2148 70471.61733   362.62452   354.15886     0.02908
      2149 70527.99462   290.88471   287.83341     0.03510
      2150 70584.41702   230.13988   234.07759     0.04214
      2151 70640.88455   184.12637   176.47288     0.05382
      2152 70697.39726   152.51508   154.34630     0.06003
      2153 70753.95518   132.63490   134.12122     0.06735
      2154 70810.55834   121.11790   118.75928     0.07435
      2155 70867.20679   115.00939   112.94847     0.07735
      2156 70923.90055   112.25113   112.29814     0.07763
      2157 70980.63967   111.73870   110.63094     0.07842
      2158 71037.42419   113.23440   109.47650     0.07885
      2159 71094.25412   117.33533   110.78669     0.07768
      2160 71151.12953   125.54694   116.09162     0.07414
      2161 71208.05043   140.35141   124.36597     0.06933
      2162 71265.01687   165.02693   152.74986     0.05773
      2163 71322.02889   202.93928   201.32231     0.04505
      2164 71379.08651   256.18510   264.81785     0.03501
      2165 71436.18978   323.81405   329.78389     0.02848
      2166 71493.33873   400.16782   423.07784     0.02244
      2167 71550.53340   473.88905   498.34029     0.01911
      2168 71607.77383   528.50399   541.08636     0.01757
      2169 71665.06005   547.31064   555.29718     0.01706
      2170 71722.39209   523.44845   535.54312     0.01759
      2171 71779.77001   465.32722   467.05249     0.01996
      2172 71837.19382   389.89543   391.84824     0.02347
      2173 71894.66358   313.18199   323.48646     0.02796
      2174 71952.17931   246.04041   258.23313     0.03425
      2175 72009.74105   193.65296   197.42702     0.04345
      2176 72067.34885   156.55494   166.29377     0.05039
      2177 72125.00273   132.35852   142.72376     0.05739
      2178 72182.70273   117.55069   123.76659     0.06461
      2179 72240.44889   108.80926   112.69553     0.06969
      2180 72298.24125   103.63044   110.75364     0.07050
      2181 72356.07984   100.40650    98.12725     0.07759
      2182 72413.96471    98.22559   101.23336     0.07543
      2183 72471.89588    96.61710    95.91407     0.07850
      2184 72529.87339    95.34979    99.60368     0.07585
      2185 72587.89729    94.30809    91.92189     0.08056
      2186 72645.96761    93.43139    85.41603     0.08486
      2187 72704.08438    92.68276    92.73634     0.07908
      2188 72762.24765    92.03683    89.52894     0.08091
      2189 72820.45745    91.47477    85.78358     0.08343
      2190 72878.71382    90.98205    85.89466     0.08338
      2191 72937.01679    90.54712    94.18203     0.07775
      2192 72995.36640    90.16073    93.00105     0.07866
      2193 73053.76269    89.81539    91.35542     0.07984
      2194 73112.20570    89.50498    90.17640     0.08069
      2195 73170.69547    89.22447    90.90426     0.08017
      2196 73229.23202    88.96970    87.28798     0.08276
      2197 73287.81541    88.73718    90.46330     0.08054
      2198 73346.44566    88.52400    91.08821     0.08034
      2199 73405.12282    88.32767    92.20575     0.07958
      2200 73463.84692    88.14610    84.41535     0.08507
      2201 73522.61800    87.97750    79.77387     0.08833
      2202 73581.43609    87.82035    88.54641     0.08087
      2203 73640.30124    87.67331    88.13795     0.08085
      2204 73699.21348    87.53522    89.58592     0.07946
      2205 73758.17285    87.40520    82.15628     0.08434
      2206 73817.17939    87.28225    90.24965     0.07742
      2207 73876.23313    87.16560    81.13065     0.08285
      2208 73935.33412    87.05459    86.15216     0.07813
      2209 73994.48239    86.94864    75.32516     0.08530
      2210 74053.67797    86.65679    77.64495     0.08268
      2211 74112.92091    86.33542    80.26200     0.08038
      2212 74172.21125    86.24271    79.06227     0.08158
      2213 74231.54902    86.16389    80.09233     0.08151
      2214 74290.93426    86.08823    83.81970     0.07926
      2215 74350.36701    86.01473    80.43097     0.08180
      2216 74409.84730    85.94316    81.65334     0.08076
      2217 74469.37518    85.87330    80.83625     0.08118
      2218 74528.95068    85.80501    84.23893     0.07830
      2219 74588.57384    85.73807    82.85208     0.07899
      2220 74648.24470    85.67232    82.52737     0.07926
      2221 74707.96329    85.60763    85.80815     0.07722
      2222 74767.72966    85.54388    81.69890     0.08049
      2223 74827.54385    85.48094    85.98451     0.07745
      2224 74887.40588    85.41872    83.00089     0.07945
      2225 74947.31581    85.35712    82.20484     0.07996
      2226 75007.27366    85.29606    82.84216     0.07950
      2227 75067.27948    85.23546    85.01615     0.07790
      2228 75127.33330    85.17526    80.29319     0.08137
      2229 75187.43517    85.11541    78.77210     0.08232
      2230 75247.58512    85.05583    87.53645     0.07538
      2231 75307.78319    84.99646    83.61913     0.07757
      2232 75368.02941    84.93727    90.53544     0.07251
      2233 75428.32384    84.87821    84.17743     0.07643
      2234 75488.66649    84.66519    85.49900     0.07501
      2235 75549.05743    84.33757    82.33049     0.07652
      2236 75609.49667    84.27292    86.21357     0.07320
      2237 75669.98427    84.22584    81.59567     0.07599
      2238 75730.52026    84.17920    77.38055     0.07933
      2239 75791.10467    84.13198    84.57149     0.07475
      2240 75851.73756    84.08420    84.73151     0.07507
      2241 75912.41895    84.03585    82.78243     0.07620
      2242 75973.14888    83.98696    81.77183     0.07611
      2243 76033.92740    83.93753    89.90145     0.06969
      2244 76094.75454    83.88757    78.89895     0.07583
      2245 76155.63035    83.83709    76.88199     0.07602
      2246 76216.55485    83.78610    78.51340     0.07388
      2247 76277.52810    83.73461    79.32930     0.07286
      2248 76338.55012    83.68264    81.80141     0.07121
      2249 76399.62096    83.63019    88.86098     0.06695
      2250 76460.74066    83.57727    87.16394     0.06791
      2251 76521.90925    83.52390    83.34233     0.07040
      2252 76583.12678    83.47008    75.57321     0.07603
      2253 76644.39328    83.74974    81.67004     0.07162
      2254 76705.70879    83.94736    77.51975     0.07388
      2255 76767.07336    83.94243    79.55114     0.07156
      2256 76828.48702    83.90481    80.08017     0.07038
      2257 76889.94981    83.86588    81.46555     0.06899
      2258 76951.46177    83.82722    79.72974     0.07004
      2259 77013.02294    83.78892    79.76585     0.07027
      2260 77074.63335    83.75103    81.27625     0.06981
      2261 77136.29306    83.71361    78.13808     0.07254
      2262 77198.00210    83.67671    80.12706     0.07166
      2263 77259.76050    83.64041    94.50171     0.06326
      2264 77321.56831    83.60476    82.03837     0.07099
      2265 77383.42556    83.56983    87.23281     0.06785
      2266 77445.33230    83.53571    86.12375     0.06857
      2267 77507.28857    83.50250    95.26173     0.06297
      2268 77569.29440    83.47026    86.12873     0.06767
      2269 77631.34983    83.43907    87.04824     0.06615
      2270 77693.45491    83.40905    82.78442     0.06763
      2271 77755.60968    83.38028    84.61324     0.06534
      2272 77817.81416    83.35288    84.61877     0.06424
      2273 77880.06842    83.32697    69.88151     0.07290
      2274 77942.37247    83.30267    84.24835     0.06320
      2275 78004.72637    83.28013    75.17089     0.06862
      2276 78067.13015    83.25949    81.32143     0.06509
      2277 78129.58385    83.24093    83.61400     0.06407
      2278 78192.08752    83.22464    88.46688     0.06148
      2279 78254.64119    83.21078    80.53675     0.06604
      2280 78317.24490    83.19956    85.64427     0.06284
      2281 78379.89870    83.19118    84.13985     0.06343
      2282 78442.60262    83.18591    84.73739     0.06279
      2283 78505.35670    83.18399    91.97852     0.05869
      2284 78568.16099    83.18573    89.61291     0.05977
      2285 78631.01552    83.19144    83.69764     0.06295
      2286 78693.92033    83.20146    88.23937     0.06030
      2287 78756.87546    83.21620    92.75248     0.05787
      2288 78819.88096    83.23606    90.48971     0.05905
      2289 78882.93687    83.26153    88.53952     0.06027
      2290 78946.04322    83.29317    94.82608     0.05720
      2291 79009.20005    83.33160    86.49359     0.06159
      2292 79072.40741    83.37742    84.55919     0.06259
      2293 79135.66534    83.43137    95.14619     0.05680
      2294 79198.97387    83.49427    90.10738     0.05936
      2295 79262.33305    83.56704    87.45043     0.06091
      2296 79325.74292    83.65075    87.10123     0.06103
      2297 79389.20351    83.74659    94.73270     0.05662
      2298 79452.71487    83.85593    93.68736     0.05655
      2299 79516.27705    83.99521    86.58338     0.05971
      2300 79579.89007    84.14761    92.26610     0.05653
      2301 79643.55398    84.30954    90.80803     0.05701
      2302 79707.26882    84.49170    85.56827     0.05960
      2303 79771.03464    84.69790    86.40899     0.05935
      2304 79834.85147    84.93143    84.56775     0.06080
      2305 79898.71935    85.19609    84.44709     0.06144
      2306 79962.63832    85.49638    90.17060     0.05879
      2307 80026.60843    85.83763    83.95087     0.06246
      2308 80090.62972    86.22618    88.63615     0.05969
      2309 80154.70222    86.66968    84.32309     0.06166
      2310 80218.82599    87.17791    92.14380     0.05718
      2311 80283.00105    87.76197    91.17715     0.05744
      2312 80347.22745    88.43582    80.86532     0.06278
      2313 80411.50523    89.21739    86.72993     0.05912
      2314 80475.83443    90.13057    86.95667     0.05867
      2315 80540.21510    91.20956    82.47108     0.06096
      2316 80604.64727    92.50824    86.67960     0.05870
      2317 80669.13099    94.11967    85.08486     0.05942
      2318 80733.66630    96.21441   103.09674     0.05096
      2319 80798.25323    99.10918    92.32971     0.05539
      2320 80862.89183   103.37688    98.03700     0.05287
      2321 80927.58214   109.99813    99.90766     0.05215
      2322 80992.32421   120.52769   112.73737     0.04734
      2323 81057.11807   137.20544   130.21247     0.04203
      2324 81121.96376   162.89460   153.29566     0.03663
      2325 81186.86133   200.71198   204.43397     0.02855
      2326 81251.81082   253.26664   277.18748     0.02175
      2327 81316.81227   321.56057   341.27992     0.01801
      2328 81381.86572   403.77767   449.39063     0.01396
      2329 81446.97122   494.27364   548.03609     0.01159
      2330 81512.12879   583.02363   647.37572     0.00991
      2331 81577.33850   655.93162   740.33330     0.00872
      2332 81642.60037   697.35548   740.22946     0.00874
      2333 81707.91445   696.31285   716.83307     0.00902
      2334 81773.28078   653.05813   655.23061     0.00984
      2335 81838.69940   578.85889   584.89453     0.01097
      2336 81904.17036   489.34759   512.41600     0.01246
      2337 81969.69370   398.55105   404.85718     0.01557
      2338 82035.26945   316.44125   323.08049     0.01923
      2339 82100.89767   248.58620   247.32658     0.02462
      2340 82166.57839   196.68473   195.82393     0.03048
      2341 82232.31165   159.59845   167.36800     0.03512
      2342 82298.09750   134.59825   149.22477     0.03883
      2343 82363.93598   118.48931   125.36926     0.04491
      2344 82429.82713   108.37879   106.18591     0.05126
      2345 82495.77099   102.03539   102.70025     0.05245
      2346 82561.76760    97.93372    96.78332     0.05483
      2347 82627.81702    95.12749   102.63005     0.05233
      2348 82693.91927    93.07327    88.04902     0.05899
      2349 82760.07441    91.47548    96.90621     0.05482
      2350 82826.28247    90.17679    90.40919     0.05793
      2351 82892.54349    89.09160    87.13647     0.05966
      2352 82958.85753    88.16992    93.73255     0.05657
      2353 83025.22461    87.37957    95.42134     0.05596
      2354 83091.64479    86.69773    79.35401     0.06458
      2355 83158.11811    86.10780    83.73868     0.06201
      2356 83224.64460    85.59548    87.84498     0.05979
      2357 83291.22432    85.14994    91.35000     0.05809
      2358 83357.85730    84.76246    89.65829     0.05903
      2359 83424.54358    84.42601    81.96055     0.06321
      2360 83491.28322    84.13494    81.09988     0.06334
      2361 83558.07625    83.88477    87.78002     0.05907
      2362 83624.92271    83.67207    85.67043     0.05971
      2363 83691.82265    83.49454    78.91290     0.06326
      2364 83758.77610    83.35123    88.71362     0.05801
      2365 83825.78312    83.24319    84.26668     0.06045
      2366 83892.84375    83.17487    87.01674     0.05920
      2367 83959.95803    83.15652    80.68180     0.06306
      2368 84027.12599    83.20818    77.38432     0.06554
      2369 84094.34769    83.36504    91.13816     0.05805
      2370 84161.62317    83.68353    88.02101     0.05947
      2371 84228.95247    84.24576    89.42631     0.05833
      2372 84296.33563    85.15872    85.69884     0.05981
      2373 84363.77270    86.54326    90.34067     0.05737
      2374 84431.26372    88.50986    93.62569     0.05598
      2375 84498.80873    91.12102    86.04043     0.06006
      2376 84566.40778    94.34728    95.15955     0.05581
      2377 84634.06090    98.02682   110.57095     0.04961
      2378 84701.76815   101.83829   108.42110     0.05035
      2379 84769.52957   105.29598   116.32661     0.04739
      2380 84837.34519   107.79556   102.20395     0.05246
      2381 84905.21507   108.77355   113.10416     0.04818
      2382 84973.13924   107.97382   110.12575     0.04907
      2383 85041.11775   105.60566   111.07312     0.04868
      2384 85109.15064   102.21128   102.85686     0.05180
      2385 85177.23796    98.40065    97.93989     0.05397
      2386 85245.37975    94.67853   102.34391     0.05244
      2387 85313.57606    91.38748    96.28781     0.05549
      2388 85381.82692    88.70669    93.23055     0.05735
      2389 85450.13238    86.67644    90.96587     0.05879
      2390 85518.49249    85.23818    86.19702     0.06142
      2391 85586.90728    84.28010    84.59078     0.06226
      2392 85655.37681    83.67687    90.27669     0.05911
      2393 85723.90111    83.31628    88.99182     0.05970
      2394 85792.48023    83.11146    86.54807     0.06087
      2395 85861.11421    83.00229    88.97176     0.05943
      2396 85929.80310    82.95071    85.38709     0.06131
      2397 85998.54695    82.93431    81.03794     0.06376
      2398 86067.34578    82.94056    86.41344     0.06057
      2399 86136.19966    82.96257    83.43757     0.06212
      2400 86205.10862    82.99649    84.71794     0.06138
      2401 86274.07271    83.04004    78.08729     0.06520
      2402 86343.09197    83.09172    94.92913     0.05586
      2403 86412.16644    83.15046    86.43413     0.05951
      2404 86481.29617    83.21541    80.54297     0.06213
      2405 86550.48121    83.28590    83.11670     0.06041
      2406 86619.72159    83.36136    88.40199     0.05776
      2407 86689.01737    83.06135    83.92332     0.06027
      2408 86758.36858    82.93815    74.81979     0.06585
      2409 86827.77528    83.03476    89.05221     0.05819
      2410 86897.23750    83.14083    83.10994     0.06172
      2411 86966.75529    83.24964    78.29665     0.06518
      2412 87036.32869    83.36071    79.46916     0.06522
      2413 87105.95776    83.47383    89.39333     0.06019
      2414 87175.64252    83.58881    79.40699     0.06638
      2415 87245.38304    83.70547    94.19964     0.05805
      2416 87315.17934    83.82361    80.57525     0.06533
      2417 87385.03149    83.94310    84.67377     0.06261
      2418 87454.93951    84.06375    88.62771     0.06011
      2419 87524.90346    84.18543    82.26039     0.06314
      2420 87594.92339    84.30797    93.39266     0.05692
      2421 87664.99933    84.43123    79.54093     0.06405
      2422 87735.13133    84.55506    81.59113     0.06285
      2423 87805.31943    84.67930    82.76445     0.06231
      2424 87875.56369    84.80383    81.27590     0.06350
      2425 87945.86414    84.92847    78.67904     0.06554
      2426 88016.22083    85.05310    86.57463     0.06125
      2427 88086.63380    85.17754    93.12683     0.05791
      2428 88157.10311    85.30164    83.46695     0.06279
      2429 88227.62879    85.42525    79.20486     0.06493
      2430 88298.21090    85.54821    79.95197     0.06425
      2431 88368.84947    85.67035    83.75665     0.06219
      2432 88439.54455    85.79151    80.83935     0.06430
      2433 88510.29618    85.91150    78.76671     0.06605
      2434 88581.10442    86.03017    80.98241     0.06506
      2435 88651.96930    86.14731    87.93783     0.06143
      2436 88722.89088    86.26276    88.35881     0.06160
      2437 88793.86919    86.37632    79.32957     0.06740
      2438 88864.90429    86.48780    86.15116     0.06357
      2439 88935.99621    86.59699    85.67532     0.06425
      2440 89007.14501    86.70370    80.32052     0.06791
      2441 89078.35072    86.80770    76.58136     0.07043
      2442 89149.61340    86.90879    85.98505     0.06405
      2443 89220.93309    87.00673    85.45836     0.06404
      2444 89292.30984    87.10131    82.54581     0.06566
      2445 89363.74369    87.19228    85.44312     0.06395
      2446 89435.23468    87.27941    83.33288     0.06534
      2447 89506.78287    87.36244    78.17720     0.06891
      2448 89578.38830    87.44112    89.68320     0.06230
      2449 89650.05101    87.51520    84.50702     0.06558
      2450 89721.77105    87.58439    86.13727     0.06481
      2451 89793.54846    87.64843    84.64452     0.06585
      2452 89865.38330    87.70703    89.49222     0.06309
      2453 89937.27561    87.75989    84.97071     0.06567
      2454 90009.22543    87.80673    89.28855     0.06274
      2455 90081.23281    87.84723    84.13831     0.06499
      2456 90153.29780    87.88108    81.02964     0.06604
      2457 90225.42044    87.90796    71.94617     0.07124
      2458 90297.60077    87.90927    84.13265     0.06273
      2459 90369.83885    87.91373    88.60379     0.06000
      2460 90442.13472    87.91810    82.87579     0.06321
      2461 90514.48843    87.91432    77.06183     0.06720
      2462 90586.90002    87.90180    84.13756     0.06331
      2463 90659.36954    87.88015    96.61231     0.05694
      2464 90731.89704    87.84900    81.87985     0.06461
      2465 90804.48256    87.80795    83.59986     0.06301
      2466 90877.12614    87.75659    71.76754     0.06980
      2467 90949.82784    87.69452    81.08898     0.06311
      2468 91022.58770    87.62130    85.70167     0.06026
      2469 91095.40577    87.53651    83.55850     0.06138
      2470 91168.28210    87.43968    87.41214     0.05914
      2471 91241.21672    87.33038    79.68257     0.06305
      2472 91314.20970    87.20812    86.33274     0.05879
      2473 91387.26107    87.07243    89.92362     0.05639
      2474 91460.37087    86.92282    82.89192     0.05929
      2475 91533.53917    86.75879    81.71704     0.05925
      2476 91606.76600    86.57981    83.88259     0.05758
      2477 91680.05142    86.38537    89.10292     0.05479
      2478 91753.39546    86.17492    88.33328     0.05514
      2479 91826.79817    85.94792    86.40420     0.05617
      2480 91900.25961    85.70379    87.99320     0.05549
      2481 91973.77982    85.44196    91.30194     0.05388
      2482 92047.35884    85.16184    85.11160     0.05676
      2483 92120.99673    84.86282    85.80919     0.05608
      2484 92194.69353    84.54428    94.02113     0.05173
      2485 92268.44928    84.20559    89.08729     0.05324
      2486 92342.26404    83.84611    91.31365     0.05142
      2487 92416.13785    83.46517    88.15914     0.05200
      2488 92490.07076    83.06210    86.29870     0.05241
      2489 92564.06282    82.63620    89.57030     0.05127
      2490 92638.11407    82.18677    83.16171     0.05504
      2491 92712.22456    81.71308    90.13451     0.05245
      2492 92786.39434    81.21441    89.86838     0.05270
      2493 92860.62346    80.68998    91.31674     0.05186
      2494 92934.91196    80.13903    87.54307     0.05324
      2495 93009.25988    79.56078    91.21068     0.05109

data_d6_MAPbI3_190K_p_02
_diffrn_radiation_wavelength     2.665
# 1 Angstrom bandwith with centre wavelengths of 2.665 Angstrom    
loop_
_refln_index_h
_refln_index_k
_refln_index_l
_refln_d_spacing
_refln_F_squared_calc
_refln_F_squared_meas
   0   0   2     6.34410   851.68543   904.07423 
   0   0   4     3.17205  2127.78730  2100.67256 
   0   0   6     2.11470   103.59214   106.17648 
   0   0   8     1.58603   598.23292   605.17270 
   0   0  10     1.26882    65.23127    64.73334 
   1   1   0     6.22217  1311.92010  1385.62515 
   1   1   2     4.44222  4702.88806  4823.53359 
   1   1   4     2.82601    59.96057    61.65056 
   1   1   6     2.00222    83.44720    83.79727 
   1   1   8     1.53688   585.57772   587.15547 
   1   1  10     1.24324    54.75618    54.87704 
   2   0   0     4.39974  2287.41827  2273.23492 
   2   0   2     3.61539  2269.30425  2333.44340 
   2   0   4     2.57305   682.20259   662.36765 
   2   0   6     1.90597    39.68561    38.94948 
   2   0   8     1.49204   339.56282   339.47331 
   2   0  10     1.21914    32.22174    34.39179 
   2   1   1     3.75862    91.36131    91.51790 
   2   1   3     2.88102  1184.38260  1177.60049 
   2   1   5     2.13267     0.06720     0.06926 
   2   1   7     1.64635   462.07461   465.84313 
   2   1   9     1.32720    18.41466    18.31144 
   2   2   0     3.11109  2192.02478  2168.97518 
   2   2   2     2.79330   164.12873   162.98839 
   2   2   4     2.22111  2113.17339  2105.50591 
   2   2   6     1.74892   428.03244   429.48337 
   2   2   8     1.41300  1714.26188  1694.10813 
   3   1   0     2.78264   850.21203   845.32013 
   3   1   2     2.54829   736.04641   713.52925 
   3   1   4     2.09183  2770.19118  2786.48082 
   3   1   6     1.68368   294.99670   296.76281 
   3   1   8     1.37792  1495.51264  1483.78931 
   3   2   1     2.39661   512.89470   513.19389 
   3   2   3     2.11385   375.75363   383.85390 
   3   2   5     1.75905   982.03009   981.23825 
   3   2   7     1.45516    45.17916    44.50530 
   3   2   9     1.22076   245.50453   256.44517 
   3   3   0     2.07406   234.32263   236.75870 
   3   3   2     1.97138    59.70105    59.38010 
   3   3   4     1.73592   235.76223   236.80747 
   3   3   6     1.48074    12.38099    12.28792 
   3   3   8     1.25988    86.24763    86.77671 
   4   0   0     2.19987   430.97439   433.11722 
   4   0   2     2.07846   570.79797   572.71753 
   4   0   4     1.80769   933.00782   921.01937 
   4   0   6     1.52454   215.57702   214.07285 
   4   0   8     1.28653  1074.79526  1077.89596 
   4   1   1     2.10462  1103.84230  1125.12610 
   4   1   3     1.90535    87.67374    86.00904 
   4   1   5     1.63334  1237.71296  1239.62155 
   4   1   7     1.38156   113.39772   113.58376 
   4   2   0     1.96762   234.71279   232.35267 
   4   2   2     1.87931   140.35441   141.99628 
   4   2   4     1.67206   971.80462   973.34834 
   4   2   6     1.44051     1.56446     1.54634 
   4   2   8     1.23482  1364.08002  1397.21983 
   4   3   1     1.74321    20.72527    20.85697 
   4   3   3     1.62484  1198.69102  1190.37922 
   4   3   5     1.44615    16.24427    16.06453 
   4   3   7     1.26266   430.71863   426.65920 
   4   4   0     1.55554   431.33403   432.11517 
   4   4   2     1.51079   191.99078   189.05096 
   4   4   4     1.39665  1216.43155  1203.15966 
   4   4   6     1.25305    34.18856    34.47882 
   5   1   0     1.72572   857.90987   870.01633 
   5   1   2     1.66521     1.23232     1.24443 
   5   1   4     1.51590   926.11317   921.13180 
   5   1   6     1.33702    99.11349    98.26280 
   5   2   1     1.62064    80.56182    80.78134 
   5   2   3     1.52422   192.01290   190.78734 
   5   2   5     1.37384   211.38350   214.15329 
   5   2   7     1.21367    56.41149    58.17261 
   5   3   0     1.50910  1605.27253  1590.13820 
   5   3   2     1.46813  1350.80875  1340.53649 
   5   3   4     1.36274  2058.18989  2047.92243 
   5   3   6     1.22839  1358.50963  1387.87670 
   5   4   1     1.36626     6.04780     6.16222 
   5   4   3     1.30698    46.15064    45.71290 
   5   4   5     1.20843    13.33757    13.75102 
   5   5   0     1.24443     4.13286     4.09478 
   5   5   2     1.22116     1.86303     1.92739 
   6   0   0     1.46658   252.49862   252.37873 
   6   0   2     1.42890   389.45309   384.03514 
   6   0   4     1.33119   719.36467   712.34373 
   6   0   6     1.20513   141.95656   146.49401 
   6   1   1     1.43731   382.93036   378.52822 
   6   1   3     1.36877   752.17530   756.47136 
   6   1   5     1.25676   185.67516   186.23866 
   6   2   0     1.39132   461.99292   464.60625 
   6   2   2     1.35902    93.71465    93.98387 
   6   2   4     1.27414  1164.07769  1162.50159 
   6   3   1     1.30480   283.60002   280.70032 
   6   3   3     1.25287    77.67333    78.36755 
   6   4   0     1.22027   616.23815   650.53906 
   6   4   2     1.19830    19.73803    20.51342 
   7   1   0     1.24443   953.29712   944.51224 
   7   1   2     1.22116   165.99631   171.73104 
   7   2   1     1.20325    63.72522    65.82557 
loop_
_pd_proc_point_id
_pd_meas_time_of_flight
_pd_proc_intensity_total
_pd_calc_intensity_total
_pd_proc_ls_weight
         1 26696.48614    64.71874    67.60871     1.58093
         2 26717.84333    64.72385    67.66902     1.59447
         3 26739.21761    64.72904    66.98810     1.62187
         4 26760.60898    64.73428    66.95761     1.63697
         5 26782.01747    64.73949    66.40309     1.66319
         6 26803.44308    64.74469    66.32573     1.68071
         7 26824.88584    64.75012    65.89734     1.70577
         8 26846.34575    64.75595    66.92694     1.70116
         9 26867.82282    64.76262    66.69602     1.72283
        10 26889.31708    64.77008    67.27579     1.72871
        11 26910.82853    64.77835    67.48972     1.74299
        12 26932.35720    64.78633    67.61224     1.76001
        13 26953.90308    64.79461    66.63189     1.80170
        14 26975.46620    64.80377    68.10078     1.79170
        15 26997.04658    64.81477    68.42372     1.80629
        16 27018.64421    64.83235    67.54799     1.84698
        17 27040.25913    64.89612    67.63110     1.86721
        18 27061.89134    65.07946    67.98521     1.88205
        19 27083.54085    65.18198    67.87120     1.90848
        20 27105.20768    65.11846    67.55863     1.94126
        21 27126.89185    65.07335    67.95000     1.95970
        22 27148.59336    65.20392    67.92609     1.98891
        23 27170.31224    65.92588    68.29192     2.00896
        24 27192.04849    66.94926    69.25875     2.01439
        25 27213.80213    68.32902    70.39149     2.01600
        26 27235.57317    69.23151    71.29439     2.02399
        27 27257.36163    68.12659    70.62554     2.06960
        28 27279.16752    66.94105    68.82767     2.14468
        29 27300.99085    66.26864    68.68791     2.18046
        30 27322.83164    65.81608    67.89908     2.23398
        31 27344.68991    65.50906    67.28225     2.28323
        32 27366.56566    65.35427    67.40368     2.31127
        33 27388.45891    65.46292    67.72101     2.33326
        34 27410.36968    66.18785    68.92223     2.33109
        35 27432.29798    66.66264    68.53639     2.37292
        36 27454.24381    66.34559    67.59155     2.43086
        37 27476.20721    66.05212    67.25213     2.47136
        38 27498.18817    66.04533    68.17570     2.47392
        39 27520.18672    66.71054    69.27293     2.47136
        40 27542.20287    70.92959    77.06470     2.29376
        41 27564.23664    84.11508    92.75176     1.99114
        42 27586.28803    92.39885    98.89865     1.91217
        43 27608.35706    86.17741    87.90778     2.14521
        44 27630.44374    78.09717    76.30370     2.45047
        45 27652.54810    73.00018    72.60579     2.58952
        46 27674.67014    70.24014    69.96349     2.70629
        47 27696.80987    69.28031    71.33097     2.69932
        48 27718.96732    73.43779    76.62713     2.57698
        49 27741.14249    92.44908    94.68589     2.18188
        50 27763.33541   103.85298   105.63463     2.00861
        51 27785.54608    92.90153    92.95257     2.26796
        52 27807.77451    81.79357    80.61814     2.58277
        53 27830.02073    75.47800    75.73416     2.74201
        54 27852.28475    73.38985    76.55879     2.73617
        55 27874.56658    82.72770    86.37582     2.49245
        56 27896.86623   103.43963   106.66187     2.10070
        57 27919.18372   101.08836   105.32816     2.14262
        58 27941.51907    87.20737    86.02446     2.56781
        59 27963.87228    77.91878    75.43290     2.89562
        60 27986.24338    72.63483    72.18106     3.04304
        61 28008.63238    69.69465    68.25434     3.23003
        62 28031.03928    68.17165    66.29452     3.35416
        63 28053.46411    67.81358    68.23378     3.32103
        64 28075.90689    70.33831    72.20297     3.20889
        65 28098.36761    82.71092    83.80103     2.86342
        66 28120.84631    95.33087    94.48612     2.60846
        67 28143.34298    87.40449    85.77312     2.85690
        68 28165.85766    77.78116    75.83147     3.19314
        69 28188.39034    72.32751    70.14555     3.43052
        70 28210.94106    69.30439    68.32771     3.53075
        71 28233.50981    67.63914    67.59615     3.58963
        72 28256.09662    66.80153    67.62476     3.61795
        73 28278.70149    67.04274    67.73200     3.64380
        74 28301.32445    68.83572    69.99057     3.57645
        75 28323.96551    68.96851    69.48990     3.62559
        76 28346.62469    67.79982    68.18639     3.70923
        77 28369.30199    68.55879    68.75226     3.71050
        78 28391.99743    71.37220    70.73001     3.65123
        79 28414.71103    70.85608    71.63913     3.63975
        80 28437.44279    69.29788    70.22654     3.72817
        81 28460.19275    69.53401    70.47434     3.74539
        82 28482.96090    69.65360    71.45749     3.72969
        83 28505.74727    73.28987    72.84645     3.69608
        84 28528.55187    79.93241    78.25214     3.50517
        85 28551.37471    77.01564    76.68034     3.58872
        86 28574.21581    71.74046    70.48164     3.87449
        87 28597.07518    68.87423    69.44103     3.94838
        88 28619.95284    67.52638    68.18255     4.03319
        89 28642.84881    67.50274    66.65048     4.13179
        90 28665.76309    68.39981    67.62830     4.10298
        91 28688.69570    68.12242    67.15025     4.14522
        92 28711.64665    67.51316    66.57168     4.19202
        93 28734.61597    68.22112    68.52736     4.11173
        94 28757.60366    76.52679    78.26907     3.70054
        95 28780.60975    99.79896    98.10944     3.06757
        96 28803.63423   102.55455   101.40360     2.99556
        97 28826.67714    86.42495    86.47826     3.45258
        98 28849.73848    76.21622    76.70460     3.83821
        99 28872.81827    71.25160    70.83007     4.11819
       100 28895.91653    68.70640    68.26881     4.26071
       101 28919.03326    67.37928    66.79967     4.35218
       102 28942.16849    66.72349    66.68429     4.37218
       103 28965.32222    66.47602    66.95189     4.37063
       104 28988.49448    66.56436    67.02719     4.37848
       105 29011.68528    67.39823    69.03873     4.28492
       106 29034.89462    74.08619    76.26231     3.95544
       107 29058.12254    95.85080    94.49866     3.30409
       108 29081.36904   101.35036   102.72115     3.08051
       109 29104.63413    86.16001    87.41409     3.54997
       110 29127.91784    75.73827    75.68851     4.02056
       111 29151.22017    70.77904    70.65615     4.27063
       112 29174.54115    68.29323    67.91464     4.42708
       113 29197.88078    67.00545    66.55101     4.51673
       114 29221.23909    66.32425    66.14966     4.55432
       115 29244.61608    65.95824    66.01463     4.57680
       116 29268.01177    65.75967    65.33075     4.63118
       117 29291.42618    65.65135    65.62562     4.63094
       118 29314.85932    65.59141    65.60280     4.65058
       119 29338.31121    65.57102    65.92659     4.65078
       120 29361.78186    65.58670    65.96694     4.66720
       121 29385.27128    65.63735    65.67955     4.70262
       122 29408.77950    65.76041    65.47692     4.73440
       123 29432.30652    66.35679    66.36864     4.70431
       124 29455.85237    69.80529    69.45236     4.55480
       125 29479.41705    75.38111    74.79223     4.30482
       126 29503.00059    74.39663    73.39984     4.39499
       127 29526.60299    71.00649    70.93128     4.54442
       128 29550.22427    68.63926    68.22047     4.71659
       129 29573.86445    67.09187    66.81593     4.82190
       130 29597.52354    66.28898    66.34417     4.87421
       131 29621.20156    65.89704    65.98902     4.91998
       132 29644.89852    65.70073    65.35845     4.98334
       133 29668.61444    65.60692    65.33809     5.00896
       134 29692.34933    65.57065    64.72504     5.07099
       135 29716.10321    65.55302    64.60436     5.10147
       136 29739.87609    65.54667    64.64378     5.12181
       137 29763.66799    65.54959    63.83168     5.19928
       138 29787.47893    65.55809    64.28749     5.19520
       139 29811.30891    65.57334    64.88311     5.18273
       140 29835.15796    65.59366    64.50784     5.23394
       141 29859.02608    65.61942    64.38946     5.26828
       142 29882.91330    65.64818    64.45703     5.29016
       143 29906.81964    65.69456    65.23947     5.26547
       144 29930.74509    65.77765    64.53259     5.34126
       145 29954.68969    66.01255    65.12786     5.33024
       146 29978.65344    66.54587    66.04940     5.29756
       147 30002.63636    66.95999    66.49755     5.29597
       148 30026.63847    68.26601    69.06436     5.15893
       149 30050.65978    76.99386    76.97824     4.73474
       150 30074.70031    92.02577    90.30292     4.15143
       151 30098.76007    89.52634    88.36550     4.24795
       152 30122.83908    78.41207    78.40490     4.72411
       153 30146.93735    71.83011    72.16883     5.08782
       154 30171.05490    69.34167    68.26162     5.35419
       155 30195.19174    69.97111    69.58302     5.29650
       156 30219.34790    70.33206    69.52959     5.32583
       157 30243.52337    68.56372    68.56836     5.41303
       158 30267.71819    67.09868    65.93946     5.61580
       159 30291.93237    66.37550    65.05232     5.70441
       160 30316.16591    66.03056    65.34080     5.70912
       161 30340.41885    65.86426    65.01572     5.75806
       162 30364.69118    65.80957    65.15192     5.77538
       163 30388.98293    65.81929    65.07677     5.81018
       164 30413.29412    65.82721    64.85631     5.85673
       165 30437.62476    65.83867    64.63902     5.90173
       166 30461.97486    65.85672    65.58073     5.85849
       167 30486.34444    65.87454    65.11675     5.91875
       168 30510.73351    65.91657    64.81197     5.96773
       169 30535.14210    65.97740    65.81207     5.91824
       170 30559.57021    66.05264    65.13411     5.99244
       171 30584.01787    66.15251    65.11010     6.01736
       172 30608.48508    66.29446    65.68891     5.99721
       173 30632.97187    66.51732    65.93105     6.00286
       174 30657.47825    67.02951    66.70687     5.97027
       175 30682.00423    68.77697    67.62498     5.92841
       176 30706.54983    71.45008    70.86962     5.72577
       177 30731.11507    73.51773    75.54642     5.44910
       178 30755.69997    88.87895    93.04132     4.57962
       179 30780.30453   135.27314   135.38160     3.29849
       180 30804.92877   147.21959   145.80109     3.09714
       181 30829.57271   114.34908   114.80198     3.85720
       182 30854.23637    90.04698    91.82729     4.71168
       183 30878.91976    80.73769    84.05555     5.10367
       184 30903.62290    87.91165    90.20663     4.82137
       185 30928.34579   101.50543    99.60557     4.44049
       186 30953.08847    93.92911    93.13488     4.72609
       187 30977.85094    81.12617    81.48232     5.32184
       188 31002.63322    75.44810    76.90320     5.61086
       189 31027.43533    76.96189    77.64680     5.58621
       190 31052.25728    78.28299    79.74455     5.48113
       191 31077.09908    77.37896    79.66248     5.50521
       192 31101.96076    90.63076    90.43305     4.95569
       193 31126.84233   123.17786   119.30413     3.89704
       194 31151.74380   125.02959   126.26768     3.71578
       195 31176.66520   100.88965   101.11925     4.54027
       196 31201.60653    85.89076    84.80620     5.30379
       197 31226.56782    78.66918    79.04534     5.64633
       198 31251.54907    73.14994    73.57757     6.01273
       199 31276.55031    69.80830    71.37679     6.18177
       200 31301.57155    68.21344    69.14464     6.36185
       201 31326.61281    67.52764    68.38168     6.43463
       202 31351.67410    67.35648    68.06590     6.47301
       203 31376.75544    67.97253    68.13321     6.48043
       204 31401.85684    72.53266    73.56369     6.08939
       205 31426.97833    83.85119    84.06660     5.44574
       206 31452.11991    86.56043    86.13085     5.34008
       207 31477.28161    79.43299    79.93288     5.69851
       208 31502.46343    76.70019    78.27827     5.80709
       209 31527.66540    90.89246    90.13203     5.15179
       210 31552.88753   118.36523   115.01603     4.16223
       211 31578.12984   115.30115   111.42321     4.28367
       212 31603.39235    93.68439    91.41241     5.09845
       213 31628.67506    79.43783    78.74226     5.79791
       214 31653.97800    72.62253    72.62770     6.21122
       215 31679.30118    69.48887    70.22108     6.39204
       216 31704.64463    68.05719    68.57949     6.52138
       217 31730.00834    67.42031    68.03361     6.56657
       218 31755.39235    67.17509    67.30297     6.62689
       219 31780.79666    67.17301    67.98541     6.57318
       220 31806.22130    67.40584    67.75275     6.59389
       221 31831.66628    67.98397    68.64128     6.52533
       222 31857.13161    69.78210    71.28162     6.32539
       223 31882.61731    80.53647    81.60662     5.64520
       224 31908.12341   117.10259   111.37147     4.30872
       225 31933.64991   143.85808   142.80787     3.44808
       226 31959.19683   122.27067   119.89802     4.04096
       227 31984.76418    94.89588    91.76108     5.12015
       228 32010.35200    79.97429    79.24687     5.81237
       229 32035.96028    72.94786    73.16355     6.22304
       230 32061.58905    69.65758    69.72910     6.48396
       231 32087.23832    68.09674    68.14435     6.61577
       232 32112.90811    67.33945    68.63873     6.58423
       233 32138.59843    66.96538    67.53250     6.68280
       234 32164.30931    66.82191    66.76383     6.75611
       235 32190.04076    66.85968    67.36618     6.71511
       236 32215.79279    67.23241    66.65241     6.78208
       237 32241.56543    69.68786    70.23718     6.50007
       238 32267.35868    77.72651    76.95938     6.02606
       239 32293.17257    83.40955    82.25154     5.70207
       240 32319.00710    78.76635    78.28626     5.95594
       241 32344.86231    72.86655    71.81088     6.41818
       242 32370.73820    69.67423    69.04287     6.64933
       243 32396.63479    68.32032    68.72987     6.69318
       244 32422.55210    68.89770    68.89442     6.69783
       245 32448.49014    74.86670    74.99441     6.25444
       246 32474.44893    83.50803    82.18462     5.79988
       247 32500.42849    81.47635    80.34497     5.92502
       248 32526.42883    74.74349    74.13659     6.35470
       249 32552.44998    70.49685    69.33595     6.73316
       250 32578.49194    68.37601    67.64507     6.88438
       251 32604.55473    67.34476    66.38093     7.00358
       252 32630.63837    66.93050    66.85467     6.97253
       253 32656.74288    66.99637    66.56383     7.00807
       254 32682.86828    67.11542    66.00342     7.06779
       255 32709.01457    66.91615    66.46314     7.03783
       256 32735.18179    66.67913    66.25117     7.06687
       257 32761.36993    66.55642    65.69680     7.12709
       258 32787.57903    66.52498    65.75583     7.13490
       259 32813.80909    66.59085    65.69350     7.15597
       260 32840.06014    67.05788    66.26146     7.12227
       261 32866.33219    68.27665    67.32003     7.04556
       262 32892.62525    68.74055    67.55783     7.03910
       263 32918.93935    68.01624    66.85829     7.11244
       264 32945.27450    67.38813    66.28819     7.17431
       265 32971.63072    67.13860    66.03637     7.20809
       266 32998.00803    67.13789    65.87218     7.23485
       267 33024.40643    67.32789    66.25319     7.21329
       268 33050.82596    67.77570    66.38125     7.21565
       269 33077.26662    69.10258    67.78186     7.10590
       270 33103.72843    74.76212    74.74023     6.56062
       271 33130.21142    93.28842    94.05396     5.39811
       272 33156.71558   127.30674   126.88172     4.14866
       273 33183.24096   139.21013   138.34345     3.84433
       274 33209.78755   114.86906   111.08863     4.69151
       275 33236.35538    91.31137    89.23576     5.69647
       276 33262.94446    78.76612    77.76603     6.42097
       277 33289.55482    72.72279    72.19845     6.84788
       278 33316.18646    69.78818    70.27894     7.01548
       279 33342.83941    68.32825    68.55690     7.17410
       280 33369.51368    67.58024    67.21391     7.30730
       281 33396.20929    67.22275    66.87249     7.35418
       282 33422.92626    67.23208    66.53995     7.40015
       283 33449.66460    67.53455    66.61559     7.40628
       284 33476.42434    67.51743    67.20198     7.36413
       285 33503.20547    67.19304    66.06121     7.48056
       286 33530.00804    66.95963    66.79272     7.42393
       287 33556.83205    66.86543    66.48324     7.46330
       288 33583.67751    66.89299    66.42600     7.47928
       289 33610.54445    67.04620    66.16890     7.51532
       290 33637.43289    67.47842    66.39258     7.50829
       291 33664.34283    69.83451    69.66574     7.22915
       292 33691.27431    77.60719    76.59619     6.69008
       293 33718.22733    83.97691    85.00911     6.13422
       294 33745.20191    79.98691    80.92908     6.41133
       295 33772.19807    73.89458    71.67460     7.11840
       296 33799.21583    70.39583    69.11140     7.35163
       297 33826.25520    68.73040    67.54434     7.50777
       298 33853.31621    67.97184    67.56365     7.52209
       299 33880.39886    67.66695    66.05254     7.68216
       300 33907.50318    67.61799    66.91664     7.61833
       301 33934.62918    67.76024    66.46081     7.68046
       302 33961.77689    68.09448    65.79548     7.76442
       303 33988.94631    68.72928    66.88130     7.67894
       304 34016.13746    70.29326    69.36693     7.46508
       305 34043.35037    78.29671    76.68564     6.87127
       306 34070.58505   110.92492   109.17391     5.06088
       307 34097.84152   152.34410   153.01829     3.73484
       308 34125.11980   146.50096   144.16333     3.94601
       309 34152.41989   117.31708   113.78522     4.88237
       310 34179.74183    95.86413    93.58880     5.79499
       311 34207.08562    91.79741    91.46293     5.91699
       312 34234.45129   108.61372   108.25756     5.12101
       313 34261.83885   118.02273   118.98816     4.72432
       314 34289.24832   102.81889   102.49262     5.40892
       315 34316.67972    86.34605    85.50287     6.35316
       316 34344.13306    77.32853    77.27571     6.94961
       317 34371.60837    73.48287    74.17710     7.21581
       318 34399.10566    75.28325    75.48673     7.12762
       319 34426.62494    85.02147    83.67284     6.54115
       320 34454.16624    90.00493    89.74619     6.16629
       321 34481.72957    83.13635    81.23425     6.72787
       322 34509.31496    75.67171    74.23041     7.27199
       323 34536.92241    71.55502    70.88013     7.56806
       324 34564.55195    69.56027    69.49313     7.70330
       325 34592.20359    68.64674    68.11449     7.84389
       326 34619.87735    68.31363    68.06485     7.85972
       327 34647.57325    68.76868    68.42454     7.83506
       328 34675.29131    72.80705    72.31270     7.48825
       329 34703.03155    86.27379    84.39113     6.57072
       330 34730.79397    97.73004   101.76719     5.58456
       331 34758.57861    91.01830    93.12436     6.04091
       332 34786.38547    80.04815    78.34978     7.01605
       333 34814.21458    73.56314    72.20341     7.52324
       334 34842.06595    70.36106    69.88257     7.73802
       335 34869.93960    68.77294    68.50730     7.87467
       336 34897.83555    67.96750    67.91615     7.94043
       337 34925.75382    67.55843    67.25585     8.01558
       338 34953.69442    67.35895    67.05193     8.04662
       339 34981.65738    67.27868    67.08954     8.05310
       340 35009.64271    67.29671    66.47891     8.12343
       341 35037.65042    67.43214    66.91727     8.08686
       342 35065.68054    67.92620    68.13511     7.97272
       343 35093.73309    70.68697    70.11058     7.78935
       344 35121.80807    80.39951    79.81990     6.98383
       345 35149.90552    90.18932    92.44899     6.15663
       346 35178.02544    86.07774    86.79289     6.50878
       347 35206.16786    77.61102    76.91596     7.22502
       348 35234.33280    72.39494    72.08842     7.63855
       349 35262.52026    69.77053    69.51322     7.88155
       350 35290.73028    68.46440    67.47836     8.08526
       351 35318.96286    67.79232    67.53757     8.08443
       352 35347.21803    67.43378    67.63165     8.07859
       353 35375.49581    67.24137    67.36550     8.10650
       354 35403.79621    67.13753    67.48158     8.09446
       355 35432.11924    67.08106    66.91736     8.15072
       356 35460.46494    67.05137    66.77131     8.16617
       357 35488.83331    67.04236    66.58856     8.18672
       358 35517.22438    67.04946    66.76317     8.17057
       359 35545.63816    67.06735    66.90495     8.15600
       360 35574.07467    67.09546    66.50537     8.19407
       361 35602.53393    67.13648    67.21906     8.11719
       362 35631.01595    67.19608    66.85165     8.14891
       363 35659.52077    67.28516    67.37163     8.09093
       364 35688.04838    67.41704    66.67660     8.15708
       365 35716.59882    67.64962    67.23432     8.09892
       366 35745.17210    68.21669    68.37036     7.98538
       367 35773.76824    71.01339    70.51524     7.77886
       368 35802.38725    82.77661    80.03603     6.98309
       369 35831.02916   100.04124   103.21422     5.59277
       370 35859.69399    99.19728   102.48869     5.62366
       371 35888.38174    86.40172    85.03510     6.61429
       372 35917.09245    77.04779    75.31380     7.33282
       373 35945.82612    72.25392    71.88940     7.62242
       374 35974.58278    69.85762    69.96333     7.79447
       375 36003.36245    68.62017    68.59714     7.91972
       376 36032.16514    67.96155    68.55889     7.91755
       377 36060.99087    67.60533    67.96146     7.96906
       378 36089.83966    67.40663    67.37890     8.02075
       379 36118.71153    67.30739    67.03148     8.05190
       380 36147.60650    67.26813    67.17702     8.03574
       381 36176.52459    67.25420    67.80989     7.97297
       382 36205.46581    67.25290    67.78611     7.97528
       383 36234.43018    67.25970    67.31217     8.02213
       384 36263.41772    67.27208    67.58390     7.99489
       385 36292.42846    67.29020    66.93192     8.05730
       386 36321.46240    67.34203    67.42354     8.00319
       387 36350.51957    67.41765    67.54890     7.98399
       388 36379.59999    67.47782    67.53636     7.97864
       389 36408.70367    67.53618    67.64186     7.96328
       390 36437.83063    67.62534    68.18709     7.90577
       391 36466.98089    67.75021    68.22496     7.89783
       392 36496.15448    67.92863    67.85137     7.92965
       393 36525.35140    68.21938    68.18466     7.89290
       394 36554.57168    68.95645    68.35097     7.87279
       395 36583.81534    71.12500    71.55552     7.57326
       396 36613.08239    74.46877    75.57390     7.22984
       397 36642.37286    78.57132    78.78569     6.97753
       398 36671.68676    95.75131    95.31851     5.91823
       399 36701.02411   131.11960   130.83737     4.46170
       400 36730.38493   139.76098   140.20576     4.18742
       401 36759.76923   115.72240   113.59837     5.05888
       402 36789.17705    94.51358    92.68482     6.04772
       403 36818.60839    84.58691    85.06933     6.50711
       404 36848.06328    88.09858    89.00263     6.25126
       405 36877.54173   116.77868   115.79723     4.95219
       406 36907.04376   147.27200   146.84545     3.98965
       407 36936.56940   134.12091   134.92089     4.30458
       408 36966.11865   105.90584   105.13109     5.37708
       409 36995.69155    88.01607    87.72676     6.29123
       410 37025.28810    78.89748    78.75269     6.89125
       411 37054.90833    74.22635    74.23680     7.23217
       412 37084.55226    71.88942    72.90851     7.32920
       413 37114.21990    71.32221    72.21294     7.37611
       414 37143.91128    74.81176    75.14853     7.12170
       415 37173.62640    86.57022    86.08530     6.33082
       416 37203.36531    96.60739    99.18523     5.58578
       417 37233.12800    91.28989    92.45573     5.92968
       418 37262.91450    81.34807    81.12230     6.62699
       419 37292.72483    75.02693    75.10196     7.06306
       420 37322.55901    71.73426    71.22271     7.37111
       421 37352.41706    69.99531    70.75205     7.39616
       422 37382.29899    69.04655    69.76312     7.46737
       423 37412.20483    68.52743    68.76441     7.54111
       424 37442.13460    68.24964    68.83416     7.51899
       425 37472.08830    68.10290    68.74916     7.51224
       426 37502.06597    68.00796    68.17660     7.55049
       427 37532.06763    67.99826    68.96651     7.46313
       428 37562.09328    68.06593    68.75101     7.46667
       429 37592.14296    68.22708    68.87896     7.43863
       430 37622.21667    68.50337    69.50431     7.36668
       431 37652.31444    68.96006    69.45824     7.35572
       432 37682.43630    70.10228    70.77230     7.22685
       433 37712.58224    75.61255    76.84398     6.72784
       434 37742.75231    96.43501    96.00191     5.53880
       435 37772.94651   126.64051   125.78426     4.34478
       436 37803.16487   127.73664   128.32518     4.25884
       437 37833.40740   105.95631   104.13321     5.12711
       438 37863.67413    88.45489    85.88149     6.06100
       439 37893.96507    79.14254    78.45919     6.54100
       440 37924.28024    74.42023    74.35462     6.83645
       441 37954.61966    72.32489    73.05915     6.92810
       442 37984.98336    73.66501    74.69611     6.78850
       443 38015.37134    81.22263    80.91927     6.32995
       444 38045.78364    88.26802    88.86589     5.82764
       445 38076.22027    84.57385    85.23542     6.03239
       446 38106.68125    77.46758    77.15459     6.56085
       447 38137.16659    72.93609    73.34345     6.83905
       448 38167.67632    70.58471    70.73515     7.04202
       449 38198.21046    69.34049    69.55346     7.13410
       450 38228.76903    68.65423    70.16584     7.07327
       451 38259.35205    68.26405    69.72941     7.10175
       452 38289.95953    68.03599    69.08898     7.14766
       453 38320.59150    67.89928    69.13258     7.13427
       454 38351.24797    67.84497    69.64531     7.08106
       455 38381.92897    67.80402    68.67992     7.15696
       456 38412.63451    67.75187    69.03661     7.11840
       457 38443.36462    67.73376    68.24023     7.17937
       458 38474.11931    67.73316    68.62162     7.13530
       459 38504.89861    67.74144    69.24419     7.06971
       460 38535.70253    67.75584    68.87624     7.08946
       461 38566.53109    67.77962    68.51061     7.10940
       462 38597.38431    67.81500    68.54458     7.09557
       463 38628.26222    67.85320    67.78731     7.15248
       464 38659.16483    67.89040    68.50856     7.08000
       465 38690.09216    67.94046    68.75525     7.04788
       466 38721.04424    68.01328    68.24237     7.08014
       467 38752.02107    68.11457    68.61543     7.03521
       468 38783.02269    68.25790    68.50698     7.03220
       469 38814.04911    68.47095    69.16691     6.96401
       470 38845.10035    68.82020    69.49815     6.92467
       471 38876.17643    69.50855    69.21602     6.93688
       472 38907.27737    72.02261    72.88231     6.62953
       473 38938.40319    83.32192    82.98935     5.92098
       474 38969.55391   109.75536   112.88403     4.50678
       475 39000.72955   126.59009   132.25823     3.89882
       476 39031.93014   113.88811   116.45910     4.36724
       477 39063.15568    94.69476    94.35920     5.25651
       478 39094.40621    82.86920    81.90582     5.93268
       479 39125.68173    76.97413    77.02313     6.23763
       480 39156.98228    75.44087    75.70405     6.31209
       481 39188.30786    79.62551    79.84348     6.01377
       482 39219.65851    85.66123    86.14041     5.61705
       483 39251.03424    84.06706    85.50857     5.63887
       484 39282.43506    78.19282    78.92828     6.02729
       485 39313.86101    74.04051    73.77280     6.36880
       486 39345.31210    72.28392    72.91563     6.41491
       487 39376.78835    71.98779    72.34906     6.43968
       488 39408.28978    71.89339    72.18847     6.43356
       489 39439.81641    73.01545    74.82726     6.22253
       490 39471.36827    80.66019    79.88574     5.86683
       491 39502.94536    95.38112    95.32224     5.01483
       492 39534.54772    99.22739   101.46180     4.73043
       493 39566.17535    89.71485    90.09227     5.23575
       494 39597.82829    80.88573    80.93079     5.72794
       495 39629.50656    76.58183    77.35060     5.93494
       496 39661.21016    77.24418    78.34658     5.84952
       497 39692.93913    91.14742    90.64708     5.13423
       498 39724.69348   124.38385   122.87341     3.89830
       499 39756.47324   141.75635   142.19435     3.39788
       500 39788.27842   123.06077   124.14906     3.82927
       501 39820.10904    99.34992    98.77919     4.68016
       502 39851.96513    85.18551    83.76477     5.38632
       503 39883.84670    77.73956    77.34233     5.74773
       504 39915.75377    73.70003    73.64886     5.96909
       505 39947.68638    71.43778    72.99897     5.98828
       506 39979.64453    70.13937    71.33057     6.07847
       507 40011.62824    69.37831    69.96737     6.14734
       508 40043.63754    68.92174    69.75226     6.13086
       509 40075.67245    68.63684    70.33790     6.05688
       510 40107.73299    68.44757    68.64413     6.15372
       511 40139.81918    68.34616    69.08551     6.09334
       512 40171.93103    68.30631    69.42539     6.04184
       513 40204.06858    68.28175    68.24746     6.10347
       514 40236.23183    68.26935    69.23357     6.00396
       515 40268.42082    68.26490    68.70369     6.01613
       516 40300.63556    68.26704    68.31837     6.01699
       517 40332.87606    68.27525    68.33740     5.98710
       518 40365.14237    68.28952    69.35932     5.88361
       519 40397.43448    68.28583    69.61391     5.83651
       520 40429.75243    68.28302    69.12085     5.84307
       521 40462.09623    68.31107    69.65958     5.77678
       522 40494.46591    68.35894    68.35018     5.84198
       523 40526.86148    68.42605    68.34136     5.81436
       524 40559.28297    68.51711    68.09647     5.80368
       525 40591.73039    68.64223    68.26447     5.76461
       526 40624.20378    68.82023    69.74184     5.63599
       527 40656.70314    69.08684    70.00025     5.59314
       528 40689.22850    69.51895    70.02922     5.56414
       529 40721.77989    70.41148    70.89004     5.47775
       530 40754.35731    73.81973    74.76095     5.20644
       531 40786.96080    88.19040    87.07368     4.53952
       532 40819.59037   120.10171   117.03010     3.47393
       533 40852.24604   140.96414   139.81878     2.94081
       534 40884.92783   126.72317   124.51482     3.25351
       535 40917.63578   103.09816   100.22359     3.93570
       536 40950.36989    87.68952    85.81469     4.49219
       537 40983.13018    79.37415    77.86562     4.86585
       538 41015.91669    74.79681    74.19004     5.04924
       539 41048.72942    72.19307    71.51431     5.18527
       540 41081.56840    70.68313    71.75854     5.14481
       541 41114.43366    69.79486    69.80895     5.24027
       542 41147.32520    69.26359    69.89043     5.20964
       543 41180.24306    68.93523    69.30327     5.22186
       544 41213.18726    68.72030    69.76944     5.16724
       545 41246.15781    68.58248    69.19144     5.17871
       546 41279.15473    68.50544    69.66515     5.12534
       547 41312.17806    68.46199    68.38992     5.18358
       548 41345.22780    68.43322    69.34851     5.10175
       549 41378.30398    68.41241    69.14988     5.09345
       550 41411.40663    68.39711    68.89295     5.08880
       551 41444.53575    68.38591    68.65669     5.08324
       552 41477.69138    68.37785    69.27297     5.02536
       553 41510.87353    68.37225    68.36870     5.06207
       554 41544.08223    68.33216    69.00688     5.00335
       555 41577.31750    68.30674    69.42771     4.95943
       556 41610.57935    68.29903    69.17370     4.95763
       557 41643.86782    68.29871    68.83216     4.96176
       558 41677.18291    68.30204    69.50175     4.90491
       559 41710.52466    68.31031    68.35818     4.95750
       560 41743.89308    68.32267    69.35972     4.87989
       561 41777.28819    68.33387    68.90824     4.89037
       562 41810.71002    68.34412    68.91793     4.87510
       563 41844.15859    68.35413    69.46778     4.83042
       564 41877.63392    68.36421    69.10697     4.84147
       565 41911.13602    68.37456    69.80215     4.79153
       566 41944.66493    68.38539    69.50974     4.80043
       567 41978.22066    68.39683    68.10197     4.87630
       568 42011.80324    68.40910    69.35869     4.79337
       569 42045.41268    68.42250    69.25786     4.79057
       570 42079.04901    68.43744    69.13987     4.78803
       571 42112.71225    68.45451    68.89701     4.79219
       572 42146.40242    68.47461    68.22915     4.82144
       573 42180.11954    68.49921    69.07139     4.76132
       574 42213.86364    68.53071    68.65669     4.77500
       575 42247.63473    68.57341    68.51610     4.77267
       576 42281.43284    68.63567    68.97145     4.73528
       577 42315.25798    68.74522    69.64943     4.68523
       578 42349.11019    69.02479    68.90240     4.71751
       579 42382.98948    70.20219    70.25457     4.63037
       580 42416.89587    73.95672    74.90980     4.37420
       581 42450.82939    79.30996    80.10910     4.11916
       582 42484.79005    80.24328    81.92591     4.02984
       583 42518.77788    76.69831    77.93564     4.19678
       584 42552.79291    73.24815    73.31176     4.41118
       585 42586.83514    71.21991    70.65000     4.53930
       586 42620.90461    70.11621    70.12364     4.55365
       587 42655.00133    69.50009    68.85254     4.60911
       588 42689.12533    69.15178    69.25307     4.57026
       589 42723.27663    68.95654    69.29793     4.55137
       590 42757.45525    68.85122    67.41525     4.64166
       591 42791.66122    68.80085    69.04963     4.53131
       592 42825.89455    68.78694    68.25815     4.55787
       593 42860.15526    68.80383    68.44334     4.52921
       594 42894.44339    68.86081    69.07633     4.47605
       595 42928.75894    69.01334    68.69244     4.47968
       596 42963.10195    69.64954    68.50073     4.47332
       597 42997.47243    72.12202    71.37835     4.30379
       598 43031.87041    76.99677    74.92398     4.11354
       599 43066.29590    79.63988    78.38297     3.94111
       600 43100.74894    77.27570    76.35195     4.01467
       601 43135.22954    73.80902    72.75025     4.16642
       602 43169.73772    71.56140    69.72499     4.30024
       603 43204.27351    70.32940    69.40102     4.29697
       604 43238.83693    69.64568    68.93092     4.30096
       605 43273.42800    69.25853    69.14332     4.26861
       606 43308.04675    69.03688    67.77832     4.32063
       607 43342.69318    68.90954    69.33724     4.21968
       608 43377.36734    68.83593    68.97235     4.22077
       609 43412.06923    68.79267    68.44272     4.23056
       610 43446.79889    68.76660    69.09992     4.17793
       611 43481.55633    68.75257    69.26640     4.14961
       612 43516.34157    68.74754    68.13502     4.18696
       613 43551.15464    68.74731    67.70786     4.18912
       614 43585.99557    68.74924    67.63428     4.17436
       615 43620.86436    68.75239    68.30442     4.12226
       616 43655.76106    68.76737    67.79101     4.13095
       617 43690.68566    68.78117    68.66129     4.06928
       618 43725.63821    68.79368    68.53196     4.05828
       619 43760.61872    68.80747    68.36232     4.04943
       620 43795.62722    68.81601    68.66841     4.01786
       621 43830.66372    68.82332    67.73513     4.04877
       622 43865.72825    68.83430    67.23659     4.05716
       623 43900.82083    68.84745    68.02843     3.99881
       624 43935.94149    68.86242    68.09414     3.97596
       625 43971.09024    68.87935    67.60360     3.97994
       626 44006.26712    68.89862    68.50131     3.91620
       627 44041.47213    68.92088    68.49582     3.89816
       628 44076.70531    68.94714    68.32860     3.88929
       629 44111.96667    68.97895    68.36076     3.87228
       630 44147.25624    69.01874    68.39095     3.85594
       631 44182.57405    69.07042    69.07609     3.80814
       632 44217.92011    69.14074    68.40043     3.82330
       633 44253.29445    69.24209    67.92266     3.82829
       634 44288.69708    69.40278    68.13806     3.79962
       635 44324.12804    69.75090    68.35395     3.77126
       636 44359.58734    71.04978    70.28231     3.66671
       637 44395.07501    75.68912    73.32630     3.52098
       638 44430.59107    84.83204    84.26724     3.10870
       639 44466.13554    91.36755    91.68806     2.87429
       640 44501.70845    90.09377    90.02000     2.90829
       641 44537.30982    85.99115    84.78991     3.05174
       642 44572.93967    81.20761    81.01672     3.16208
       643 44608.59802    76.63614    76.12213     3.32380
       644 44644.28490    73.46678    71.84011     3.47860
       645 44680.00032    71.62634    71.52558     3.47615
       646 44715.74432    70.58706    71.91752     3.44378
       647 44751.51692    69.99171    70.34122     3.49269
       648 44787.31813    69.64685    70.08125     3.48689
       649 44823.14799    69.44482    69.44575     3.49731
       650 44859.00651    69.32495    69.47729     3.48002
       651 44894.89371    69.25660    69.38723     3.46920
       652 44930.80963    69.22377    69.36181     3.45742
       653 44966.75427    69.21480    69.39016     3.44472
       654 45002.72768    69.22475    69.86670     3.41388
       655 45038.72986    69.25452    69.33014     3.42543
       656 45074.76084    69.31449    69.75807     3.39667
       657 45110.82065    69.47304    70.06570     3.37304
       658 45146.90931    70.14450    70.44969     3.34633
       659 45183.02684    72.45665    72.37624     3.25937
       660 45219.17326    76.37278    76.16539     3.10948
       661 45255.34860    77.94101    78.44360     3.02216
       662 45291.55288    75.79853    75.24248     3.12433
       663 45327.78612    73.09901    72.65419     3.21308
       664 45364.04835    71.37111    72.38880     3.21820
       665 45400.33959    70.41893    70.89881     3.27074
       666 45436.65986    69.88905    70.96923     3.26252
       667 45473.00919    69.58934    69.26744     3.32553
       668 45509.38759    69.41940    70.17643     3.28489
       669 45545.79510    69.32243    69.12462     3.32436
       670 45582.23174    69.26702    70.59052     3.26364
       671 45618.69752    69.23498    69.64605     3.29992
       672 45655.19248    69.21636    71.35357     3.23184
       673 45691.71664    69.20734    70.61868     3.25975
       674 45728.27001    69.20514    70.61307     3.25842
       675 45764.85263    69.20645    70.74396     3.25137
       676 45801.46451    69.20941    71.16735     3.23303
       677 45838.10568    69.21332    71.13425     3.23254
       678 45874.77616    69.21791    70.78764     3.24453
       679 45911.47598    69.22302    71.13207     3.22975
       680 45948.20517    69.23529    70.31657     3.25975
       681 45984.96373    69.25069    70.97818     3.23181
       682 46021.75170    69.26705    69.84418     3.27426
       683 46058.56910    69.29132    69.73178     3.27663
       684 46095.41596    69.33036    71.77467     3.19541
       685 46132.29229    69.36116    70.70317     3.23526
       686 46169.19812    69.38739    71.52490     3.20208
       687 46206.13348    69.41249    71.72872     3.19213
       688 46243.09839    69.43827    71.88110     3.18318
       689 46280.09287    69.46599    70.17078     3.24485
       690 46317.11694    69.49676    69.98036     3.24721
       691 46354.17064    69.60869    70.94352     3.20453
       692 46391.25397    69.78676    70.35312     3.22250
       693 46428.36698    69.94174    71.81473     3.16151
       694 46465.50967    70.07447    70.42755     3.20834
       695 46502.68208    70.20868    71.02094     3.17848
       696 46539.88422    70.35916    70.59127     3.18705
       697 46577.11613    70.54028    70.40595     3.18528
       698 46614.37782    70.80116    70.40865     3.17526
       699 46651.66932    71.17379    71.00705     3.14283
       700 46688.99066    71.66312    71.41562     3.11859
       701 46726.34185    72.56995    72.45217     3.07199
       702 46763.72293    75.26475    73.50930     3.02540
       703 46801.13390    82.99718    79.73658     2.81172
       704 46838.57481    96.61754    96.30263     2.37477
       705 46876.04567   110.22435   112.79459     2.05438
       706 46913.54651   125.42893   125.59112     1.85714
       707 46951.07735   141.92132   141.58535     1.65852
       708 46988.63821   140.05964   142.10226     1.64731
       709 47026.22912   121.34436   121.34422     1.89636
       710 47063.85010   104.04346   102.45047     2.20072
       711 47101.50118    95.31540    94.78496     2.35012
       712 47139.18238    98.42191    99.95254     2.23381
       713 47176.89373   132.96641   131.46322     1.73743
       714 47214.63524   231.72137   223.27834     1.05614
       715 47252.40695   354.89759   354.02934     0.67652
       716 47290.20888   372.98099   386.21512     0.61939
       717 47328.04104   289.56961   295.64756     0.79822
       718 47365.90348   202.69710   200.47328     1.15019
       719 47403.79620   149.25658   141.27103     1.58629
       720 47441.71924   125.37834   118.02358     1.86098
       721 47479.67261   132.07892   127.13139     1.73258
       722 47517.65635   170.11164   170.98149     1.31312
       723 47555.67047   202.68369   209.53856     1.08056
       724 47593.71501   188.54390   197.46629     1.13789
       725 47631.78998   151.11644   151.64768     1.44934
       726 47669.89542   124.79788   122.45376     1.75522
       727 47708.03133   120.82283   117.89414     1.80861
       728 47746.19776   131.45546   132.04276     1.62454
       729 47784.39471   133.05694   138.94554     1.54398
       730 47822.62223   118.00887   124.18766     1.70365
       731 47860.88033   100.15598   101.74731     2.03017
       732 47899.16903    87.85808    89.07430     2.27504
       733 47937.48837    80.69287    81.27041     2.45590
       734 47975.83836    76.57451    77.45329     2.55116
       735 48014.21903    74.17974    75.06137     2.61062
       736 48052.63040    72.77705    73.81959     2.63582
       737 48091.07251    71.93457    73.64396     2.62561
       738 48129.54537    71.40274    73.72490     2.60264
       739 48168.04900    70.87928    73.33720     2.58711
       740 48206.58344    70.55421    72.84550     2.56802
       741 48245.14871    70.35993    73.16536     2.52176
       742 48283.74483    70.24057    72.57131     2.50307
       743 48322.37182    70.16180    71.81904     2.49627
       744 48361.02972    70.10540    71.87150     2.47979
       745 48399.71855    70.06297    70.41153     2.52041
       746 48438.43832    70.03011    70.36772     2.53251
       747 48477.18907    69.96807    70.72488     2.53860
       748 48515.97082    69.89459    69.24223     2.60040
       749 48554.78360    69.86018    70.42221     2.57677
       750 48593.62743    69.84198    70.59163     2.57732
       751 48632.50233    69.83266    70.40547     2.58249
       752 48671.40833    69.82473    70.89616     2.56218
       753 48710.34546    69.81140    68.95434     2.61456
       754 48749.31373    69.82593    70.86053     2.54401
       755 48788.31318    69.84033    70.39347     2.54600
       756 48827.34383    69.85477    70.37999     2.53332
       757 48866.40571    69.86978    70.76294     2.50857
       758 48905.49883    69.88566    71.16922     2.48383
       759 48944.62323    69.90274    70.72007     2.48514
       760 48983.77893    69.92128    70.30434     2.48615
       761 49022.96595    69.94168    70.41008     2.47184
       762 49062.18433    69.96440    70.08481     2.47012
       763 49101.43407    69.99007    71.34981     2.42158
       764 49140.71522    70.01953    71.66723     2.40126
       765 49180.02779    70.12257    71.89567     2.38327
       766 49219.37182    70.28352    72.42572     2.35667
       767 49258.74731    70.42499    72.45227     2.34450
       768 49298.15431    70.55070    71.20747     2.36799
       769 49337.59283    70.68236    72.25967     2.32790
       770 49377.06291    70.83632    71.82977     2.32935
       771 49416.56456    71.03114    71.38084     2.33123
       772 49456.09781    71.29456    70.89154     2.33383
       773 49495.66269    71.68351    72.09999     2.28939
       774 49535.25922    72.42295    72.56796     2.26582
       775 49574.88743    74.72196    75.24329     2.18655
       776 49614.54734    82.66191    81.70744     2.02773
       777 49654.23897   100.96628    99.63460     1.69700
       778 49693.96237   121.66925   121.95075     1.40976
       779 49733.71754   124.78578   124.15273     1.38103
       780 49773.50451   111.11730   110.57882     1.52621
       781 49813.32331    96.01659    96.17393     1.72040
       782 49853.17397    86.24453    85.97278     1.88997
       783 49893.05651    81.07526    81.04243     1.98097
       784 49932.97096    78.78426    79.09743     2.01460
       785 49972.91733    78.47760    78.62786     2.01649
       786 50012.89567    80.55318    81.52996     1.94556
       787 50052.90598    90.33568    94.17627     1.70687
       788 50092.94831   127.48594   127.16971     1.29798
       789 50133.02267   216.18881   212.34756     0.80327
       790 50173.12909   318.62606   316.34357     0.54722
       791 50213.26759   334.24012   338.09872     0.51130
       792 50253.43820   265.34200   270.57296     0.63079
       793 50293.64095   188.69493   185.57513     0.89787
       794 50333.87587   137.99241   132.43639     1.22229
       795 50374.14297   109.21056   105.59118     1.49494
       796 50414.44228    93.15106    89.80279     1.72025
       797 50454.77383    84.09665    83.56456     1.82662
       798 50495.13765    78.92054    80.20922     1.88737
       799 50535.53376    75.90087    77.99498     1.92804
       800 50575.96219    74.07734    75.98781     1.96608
       801 50616.42296    72.92402    75.99358     1.96004
       802 50656.91610    72.19005    73.75036     2.00489
       803 50697.44163    71.71613    73.96091     1.99477
       804 50737.99959    71.42350    74.07031     1.98772
       805 50778.58998    71.22566    73.44903     1.99773
       806 50819.21286    71.07818    72.21292     2.02290
       807 50859.86823    70.96321    72.29855     2.01748
       808 50900.55612    70.87156    71.77249     2.02672
       809 50941.27657    70.79736    72.30330     2.01044
       810 50982.02959    70.73655    72.94227     1.99202
       811 51022.81521    70.68627    72.08897     2.00941
       812 51063.63346    70.64439    71.64184     2.01812
       813 51104.48437    70.60938    71.88756     2.01113
       814 51145.36796    70.57332    71.52493     2.01904
       815 51186.28425    70.40109    71.89007     2.00925
       816 51227.23328    70.31208    71.38676     2.01947
       817 51268.21507    70.27123    71.54357     2.01346
       818 51309.22964    70.25356    70.83077     2.02841
       819 51350.27702    70.24787    70.98277     2.02322
       820 51391.35724    70.24837    69.72862     2.05371
       821 51432.47033    70.25208    70.73308     2.02971
       822 51473.61631    70.25745    72.07996     1.99853
       823 51514.79520    70.26367    72.50836     1.98938
       824 51556.00703    70.27033    72.32804     1.99433
       825 51597.25184    70.27721    71.10501     2.02420
       826 51638.52964    70.28426    71.56594     2.01390
       827 51679.84047    70.29136    71.46746     2.01658
       828 51721.18434    70.29845    71.93067     2.00547
       829 51762.56129    70.30554    71.01611     2.02715
       830 51803.97133    70.31262    71.77823     2.00872
       831 51845.41451    70.31970    70.10847     2.04884
       832 51886.89084    70.32677    69.92816     2.05291
       833 51928.40036    70.33384    70.71050     2.03350
       834 51969.94308    70.34090    71.22337     2.02164
       835 52011.51903    70.34796    69.86166     2.05614
       836 52053.12825    70.35501    70.40293     2.04435
       837 52094.77075    70.36206    69.74138     2.06206
       838 52136.44657    70.36910    69.99251     2.05651
       839 52178.15572    70.37614    71.00843     2.03111
       840 52219.89825    70.38317    69.68917     2.06153
       841 52261.67417    70.39020    70.19552     2.04540
       842 52303.48350    70.39722    70.93529     2.02323
       843 52345.32629    70.40424    69.89802     2.04428
       844 52387.20255    70.41125    68.97984     2.06291
       845 52429.11231    70.41826    70.23974     2.02793
       846 52471.05560    70.42526    69.76712     2.03597
       847 52513.03245    70.43226    68.63340     2.06033
       848 52555.04288    70.43925    70.48793     2.00975
       849 52597.08691    70.44624    68.80302     2.04533
       850 52639.16458    70.45322    70.54426     1.99605
       851 52681.27591    70.46020    68.34631     2.04291
       852 52723.42093    70.46717    69.10355     2.01691
       853 52765.59967    70.47413    69.17013     2.00831
       854 52807.81215    70.48109    69.54027     1.99246
       855 52850.05840    70.48804    67.85909     2.02714
       856 52892.33844    70.49499    68.58945     2.00227
       857 52934.65231    70.50193    69.83250     1.96563
       858 52977.00004    70.52874    69.75289     1.96080
       859 53019.38164    70.57146    69.09011     1.96893
       860 53061.79714    70.60319    69.26368     1.95554
       861 53104.24658    70.62711    70.41616     1.91855
       862 53146.72998    70.64764    68.20615     1.96079
       863 53189.24736    70.66708    70.71723     1.89283
       864 53231.79876    70.68677    69.74164     1.90652
       865 53274.38420    70.70752    69.34552     1.90729
       866 53317.00371    70.72998    68.80417     1.91181
       867 53359.65731    70.75472    70.68152     1.86122
       868 53402.34503    70.78238    67.97276     1.91523
       869 53445.06691    70.81372    68.00764     1.90512
       870 53487.82296    70.84970    68.92656     1.87448
       871 53530.61322    70.89163    69.28650     1.85795
       872 53573.43771    70.94128    69.49757     1.84542
       873 53616.29646    71.00108    70.70944     1.81093
       874 53659.18950    71.07455    71.20948     1.79170
       875 53702.11685    71.16683    69.81973     1.81248
       876 53745.07855    71.28573    69.86375     1.80229
       877 53788.07461    71.44360    70.25340     1.78519
       878 53831.10507    71.66081    69.90882     1.78473
       879 53874.16995    71.97411    70.50962     1.76483
       880 53917.26929    72.47345    70.22778     1.76412
       881 53960.40310    73.55269    72.37624     1.71302
       882 54003.57143    77.07474    74.61997     1.66197
       883 54046.77428    88.42006    85.14022     1.47657
       884 54090.01170   113.19228   113.15990     1.14272
       885 54133.28371   142.25287   146.38453     0.89994
       886 54176.59034   150.16306   152.50186     0.86238
       887 54219.93161   133.18475   131.88403     0.98029
       888 54263.30756   110.23694   106.46476     1.18312
       889 54306.71820    93.41796    89.11416     1.37796
       890 54350.16358    83.56990    79.44231     1.51616
       891 54393.64371    78.14928    76.36034     1.56262
       892 54437.15862    75.16861    74.12682     1.59647
       893 54480.70835    73.50499    73.38129     1.60342
       894 54524.29292    72.55347    70.40387     1.65299
       895 54567.91235    71.98823    72.68830     1.60136
       896 54611.56668    71.63920    71.75311     1.61164
       897 54655.25593    71.42411    69.70733     1.64449
       898 54698.98014    71.29425    71.12012     1.61051
       899 54742.73932    71.21217    69.43965     1.63686
       900 54786.53351    71.15498    71.29282     1.59519
       901 54830.36274    71.11218    68.85488     1.63698
       902 54874.22703    71.07916    71.00035     1.58984
       903 54918.12641    71.05338    69.37130     1.61569
       904 54962.06091    71.03314    69.41737     1.60895
       905 55006.03056    71.01723    68.35380     1.62341
       906 55050.03539    71.00475    70.24588     1.57980
       907 55094.07542    70.99502    70.81526     1.56269
       908 55138.15068    70.98755    70.87089     1.55558
       909 55182.26120    70.98192    68.88082     1.58689
       910 55226.40700    70.97783    72.73166     1.50902
       911 55270.58813    70.97502    69.85425     1.55372
       912 55314.80460    70.93726    71.19650     1.52161
       913 55359.05644    70.91161    70.78242     1.52219
       914 55403.34369    70.90277    70.92059     1.51353
       915 55447.66636    70.90166    69.61790     1.53177
       916 55492.02450    70.90440    68.36205     1.55028
       917 55536.41812    70.90905    69.01528     1.53304
       918 55580.84725    70.91466    70.18612     1.50630
       919 55625.31193    70.92074    69.32905     1.51591
       920 55669.81218    70.92705    69.14421     1.51236
       921 55714.34803    70.93346    68.88291     1.50959
       922 55758.91951    70.93992    70.63085     1.47085
       923 55803.52664    70.94643    69.37019     1.48631
       924 55848.16946    70.95293    69.40969     1.47921
       925 55892.84800    70.95943    69.78179     1.46651
       926 55937.56228    70.96592    68.92388     1.47575
       927 55982.31233    70.97240    69.62178     1.45765
       928 56027.09818    70.97887    69.06736     1.46219
       929 56071.91986    70.98534    68.68104     1.46403
       930 56116.77739    70.99180    70.80121     1.42221
       931 56161.67081    70.99825    69.45366     1.44016
       932 56206.60015    71.00469    71.51311     1.39946
       933 56251.56543    71.04281    69.68335     1.42374
       934 56296.56668    71.09492    69.36074     1.42243
       935 56341.60394    71.14485    69.64380     1.41110
       936 56386.67722    71.17924    69.61490     1.40559
       937 56431.78656    71.20671    70.41231     1.38637
       938 56476.93199    71.23164    70.06443     1.38648
       939 56522.11354    71.25634    71.25025     1.36192
       940 56567.33123    71.28220    69.82313     1.38053
       941 56612.58509    71.31013    68.37258     1.40073
       942 56657.87516    71.34090    71.96104     1.33798
       943 56703.20146    71.37527    71.08108     1.34782
       944 56748.56402    71.41411    69.93658     1.36172
       945 56793.96287    71.45848    69.62635     1.36170
       946 56839.39804    71.56870    71.10782     1.33286
       947 56884.86956    71.67724    70.61258     1.33598
       948 56930.37746    71.77806    70.39278     1.33518
       949 56975.92176    71.88528    70.20479     1.33441
       950 57021.50250    72.00853    68.99019     1.35033
       951 57067.11970    72.15720    69.99289     1.33041
       952 57112.77339    72.34278    71.29503     1.30647
       953 57158.46361    72.58155    71.78758     1.29559
       954 57204.19038    72.89866    72.54147     1.28123
       955 57249.95374    73.33603    71.02627     1.30174
       956 57295.75370    73.97781    73.18586     1.26731
       957 57341.59030    75.10300    73.10279     1.26657
       958 57387.46357    78.01653    78.15596     1.19502
       959 57433.37355    87.45738    86.11824     1.09832
       960 57479.32024   112.63025   112.20943     0.86945
       961 57525.30370   156.41908   154.74186     0.64894
       962 57571.32394   195.60847   189.72861     0.53673
       963 57617.38100   197.23066   189.36923     0.53735
       964 57663.47491   166.58225   163.33011     0.61625
       965 57709.60569   131.13764   126.78710     0.77657
       966 57755.77337   106.02274   103.38949     0.93173
       967 57801.97799    91.67952    91.06083     1.04127
       968 57848.21957    84.25481    85.17923     1.10321
       969 57894.49815    80.90564    82.04920     1.13959
       970 57940.81375    80.96356    81.76982     1.14348
       971 57987.16640    87.58489    90.29115     1.05032
       972 58033.55613   108.92375   109.58961     0.88645
       973 58079.98298   149.08352   146.88409     0.68108
       974 58126.44696   188.38657   184.30290     0.55296
       975 58172.94812   193.44527   185.30425     0.55103
       976 58219.48648   165.34842   160.57805     0.63048
       977 58266.06207   130.55434   128.57980     0.77414
       978 58312.67492   105.17880   102.34320     0.95139
       979 58359.32506    90.35174    89.14609     1.07529
       980 58406.01252    82.30767    82.44039     1.15150
       981 58452.73733    77.96388    77.01606     1.22104
       982 58499.49952    75.56729    76.41920     1.22935
       983 58546.29912    74.19547    74.18953     1.26099
       984 58593.13616    73.37335    75.95582     1.23707
       985 58640.01067    72.86681    73.62295     1.27176
       986 58686.92267    72.55362    74.39289     1.26302
       987 58733.87221    72.35270    71.86823     1.30294
       988 58780.85931    72.21228    73.35384     1.28341
       989 58827.88400    72.10595    73.53423     1.28349
       990 58874.94630    71.98072    71.69686     1.31383
       991 58922.04626    71.86231    72.49528     1.30436
       992 58969.18390    71.78842    71.30817     1.32530
       993 59016.35925    71.73777    72.11764     1.31495
       994 59063.57233    71.70099    72.18945     1.31565
       995 59110.82319    71.67307    71.57447     1.32666
       996 59158.11185    71.65115    73.54199     1.29811
       997 59205.43834    71.63359    70.69709     1.34414
       998 59252.80269    71.61935    71.01532     1.34159
       999 59300.20493    71.60774    71.64404     1.33351
      1000 59347.64510    71.59828    72.94186     1.31409
      1001 59395.12321    71.59062    71.85330     1.33074
      1002 59442.63931    71.54101    71.88668     1.33011
      1003 59490.19342    71.49023    71.91369     1.33001
      1004 59537.78558    71.46999    71.66915     1.33455
      1005 59585.41580    71.46324    71.78196     1.33401
      1006 59633.08414    71.46299    70.99351     1.34833
      1007 59680.79060    71.46587    71.08670     1.34927
      1008 59728.53524    71.47024    73.02989     1.32136
      1009 59776.31807    71.47533    71.51113     1.34708
      1010 59824.13912    71.48075    73.03334     1.32526
      1011 59871.99843    71.48633    72.55904     1.33432
      1012 59919.89603    71.49199    72.45175     1.33780
      1013 59967.83195    71.49770    71.71590     1.35110
      1014 60015.80621    71.50340    73.21974     1.32922
      1015 60063.81886    71.50908    72.62285     1.33961
      1016 60111.86991    71.51476    71.63091     1.35592
      1017 60159.95941    71.52042    71.60998     1.35642
      1018 60208.08738    71.52607    71.94951     1.35074
      1019 60256.25385    71.53172    71.68579     1.35426
      1020 60304.45885    71.53735    70.35507     1.37473
      1021 60352.70242    71.54297    71.53379     1.35439
      1022 60400.98458    71.54858    71.25662     1.35758
      1023 60449.30537    71.55418    71.33013     1.35561
      1024 60497.66481    71.55977    70.56681     1.36727
      1025 60546.06294    71.56535    71.82143     1.34638
      1026 60594.49979    71.57092    71.83717     1.34490
      1027 60642.97539    71.57648    71.15648     1.35419
      1028 60691.48977    71.58203    71.57582     1.34570
      1029 60740.04296    71.58756    70.72164     1.35711
      1030 60788.63500    71.59309    71.88067     1.33640
      1031 60837.26591    71.59860    70.88025     1.35008
      1032 60885.93572    71.60411    70.54873     1.35340
      1033 60934.64447    71.60960    69.72991     1.36475
      1034 60983.39218    71.61508    70.18212     1.35506
      1035 61032.17890    71.62055    71.19834     1.33561
      1036 61081.00464    71.62601    69.31114     1.36235
      1037 61129.86944    71.63146    71.77185     1.31962
      1038 61178.77334    71.63690    71.33467     1.32304
      1039 61227.71636    71.64232    70.17770     1.33762
      1040 61276.69853    71.64774    70.54090     1.32785
      1041 61325.71989    71.69897    69.83520     1.33511
      1042 61374.78047    71.77252    70.80375     1.31619
      1043 61423.88029    71.84156    71.32444     1.30455
      1044 61473.01939    71.88592    71.83611     1.29268
      1045 61522.19781    71.91957    73.82249     1.25862
      1046 61571.41557    71.95870    71.07681     1.29389
      1047 61620.67270    72.00450    70.61600     1.29564
      1048 61669.96924    72.04695    71.51895     1.27752
      1049 61719.30521    72.08737    71.88624     1.26825
      1050 61768.68066    72.12920    71.42535     1.27158
      1051 61818.09560    72.17450    71.69929     1.26398
      1052 61867.55008    72.22477    71.42211     1.26406
      1053 61917.04412    72.28150    71.88351     1.25304
      1054 61966.57775    72.34626    72.61738     1.23822
      1055 62016.15102    72.42096    71.56924     1.24933
      1056 62065.76394    72.50802    72.12407     1.23738
      1057 62115.41655    72.61060    71.47535     1.24284
      1058 62165.10888    72.73295    72.01749     1.23100
      1059 62214.84097    72.88087    71.97298     1.22738
      1060 62264.61284    73.06240    73.29194     1.20473
      1061 62314.42453    73.29343    73.32697     1.20085
      1062 62364.27607    73.58949    72.03792     1.21603
      1063 62414.16749    73.97006    71.60514     1.21949
      1064 62464.09883    74.47767    73.41223     1.19092
      1065 62514.07011    75.18385    73.62233     1.18383
      1066 62564.08136    76.25669    73.72548     1.17812
      1067 62614.13263    78.33371    75.30882     1.15373
      1068 62664.22393    84.00324    82.26479     1.06779
      1069 62714.35531   100.68012    97.61843     0.91892
      1070 62764.52680   139.64536   138.45272     0.67107
      1071 62814.73842   201.41080   203.41708     0.46924
      1072 62864.99021   255.63894   254.27806     0.37930
      1073 62915.28220   261.84289   258.32462     0.37282
      1074 62965.61443   224.85303   218.87446     0.43508
      1075 63015.98692   181.51343   175.44079     0.53367
      1076 63066.39971   154.69926   149.99810     0.61484
      1077 63116.85283   140.32386   135.98181     0.67030
      1078 63167.34631   125.77362   122.17473     0.73597
      1079 63217.88019   109.16422   107.51760     0.82226
      1080 63268.45449    94.94994    94.38352     0.91942
      1081 63319.06925    85.47880    85.62820     0.99812
      1082 63369.72451    80.04043    80.19103     1.05416
      1083 63420.42029    77.09797    77.86350     1.07962
      1084 63471.15663    75.61657    77.26100     1.08526
      1085 63521.93355    74.87705    75.62029     1.10331
      1086 63572.75110    74.49351    76.85755     1.08639
      1087 63623.60930    74.45673    75.41376     1.10194
      1088 63674.50819    75.12666    75.80304     1.09506
      1089 63725.44779    77.34198    77.75342     1.06963
      1090 63776.42815    81.67870    82.03089     1.01970
      1091 63827.44929    86.63010    89.73375     0.94152
      1092 63878.51125    88.51042    88.82921     0.94731
      1093 63929.61406    86.07373    89.46172     0.93925
      1094 63980.75775    81.80178    83.94190     0.99016
      1095 64031.94236    78.17122    79.83713     1.03136
      1096 64083.16791    75.91645    77.51989     1.05514
      1097 64134.43445    74.72393    73.99228     1.09496
      1098 64185.74200    74.14000    75.19639     1.07749
      1099 64237.09059    73.88026    73.12788     1.10015
      1100 64288.48026    73.79797    74.05408     1.08543
      1101 64339.91105    73.82393    72.38087     1.10331
      1102 64391.38297    73.86742    73.39480     1.08733
      1103 64442.89608    73.96928    74.92875     1.06541
      1104 64494.45040    74.19328    74.65437     1.06582
      1105 64546.04596    74.52670    73.19820     1.08129
      1106 64597.68279    74.98635    73.53701     1.07518
      1107 64649.36094    75.59593    74.71352     1.05888
      1108 64701.08043    76.46140    76.76759     1.03240
      1109 64752.84129    77.75755    77.33072     1.02303
      1110 64804.64357    80.07289    79.15717     0.99939
      1111 64856.48728    85.82716    85.57067     0.93126
      1112 64908.37247   102.75661   105.79666     0.77110
      1113 64960.29917   145.79351   148.98893     0.56497
      1114 65012.26741   224.97739   226.03856     0.38262
      1115 65064.27722   316.95413   310.61568     0.28223
      1116 65116.32864   360.56653   355.44282     0.24735
      1117 65168.42171   326.20575   318.40020     0.27417
      1118 65220.55645   250.07420   246.99486     0.34821
      1119 65272.73289   178.64631   178.70953     0.47038
      1120 65324.95108   131.00960   134.20571     0.61024
      1121 65377.21104   104.35736   111.04315     0.72163
      1122 65429.51281    90.43311    95.78064     0.81970
      1123 65481.85642    83.16298    89.89918     0.86306
      1124 65534.24190    79.22791    81.31830     0.93719
      1125 65586.66930    76.99712    79.45578     0.95241
      1126 65639.13863    75.68756    79.24851     0.95146
      1127 65691.64994    74.89080    79.84750     0.94266
      1128 65744.20326    74.37327    75.15607     0.98985
      1129 65796.79862    74.00736    75.36322     0.98588
      1130 65849.43606    73.73038    76.34634     0.97353
      1131 65902.11561    73.51231    74.23633     0.99466
      1132 65954.83730    73.33684    75.22386     0.98086
      1133 66007.60117    73.19352    74.27905     0.98825
      1134 66060.40726    73.07505    74.78162     0.97911
      1135 66113.25558    72.97616    75.10545     0.97161
      1136 66166.14619    72.89288    74.05889     0.97921
      1137 66219.07910    72.82214    74.73910     0.96851
      1138 66272.05437    72.76164    75.03895     0.96281
      1139 66325.07201    72.70958    74.34256     0.96820
      1140 66378.13207    72.66456    74.78885     0.96132
      1141 66431.23457    72.62544    74.92006     0.95776
      1142 66484.37956    72.59130    74.88538     0.95548
      1143 66537.56706    72.56141    74.64627     0.95488
      1144 66590.79712    72.53516    74.85063     0.94914
      1145 66644.06975    72.51203    72.35323     0.97273
      1146 66697.38501    72.46047    74.22078     0.94896
      1147 66750.74292    72.30449    75.11303     0.93678
      1148 66804.14351    72.22622    73.43542     0.95227
      1149 66857.58683    72.19351    73.92249     0.94507
      1150 66911.07290    72.18115    73.92957     0.94321
      1151 66964.60176    72.17787    76.90121     0.91086
      1152 67018.17344    72.17861    74.90776     0.92949
      1153 67071.78798    72.18115    72.31075     0.95549
      1154 67125.44541    72.18447    74.13270     0.93366
      1155 67179.14576    72.18809    74.61669     0.92609
      1156 67232.88908    72.19201    73.11614     0.93919
      1157 67286.67539    72.19591    72.11001     0.94687
      1158 67340.50473    72.19980    73.79194     0.92550
      1159 67394.37713    72.20368    73.09809     0.92997
      1160 67448.29264    72.20754    72.95001     0.92940
      1161 67502.25127    72.21138    73.92902     0.91746
      1162 67556.25307    72.21521    75.19831     0.90299
      1163 67610.29807    72.21903    72.13672     0.93349
      1164 67664.38631    72.22283    72.10881     0.93179
      1165 67718.51782    72.22661    74.61416     0.90258
      1166 67772.69264    72.23038    73.21207     0.91345
      1167 67826.91079    72.23414    73.06631     0.91159
      1168 67881.17232    72.23788    73.23963     0.90721
      1169 67935.47726    72.24161    72.61880     0.91174
      1170 67989.82564    72.24532    73.69598     0.89892
      1171 68044.21750    72.24902    73.13896     0.90297
      1172 68098.65287    72.25270    73.44205     0.89826
      1173 68153.13179    72.25636    74.50668     0.88584
      1174 68207.65430    72.26002    74.15117     0.88772
      1175 68262.22042    72.26365    73.45547     0.89340
      1176 68316.83020    72.26728    73.24070     0.89468
      1177 68371.48366    72.27088    74.71524     0.87889
      1178 68426.18085    72.48246    72.84056     0.89634
      1179 68480.92180    72.77503    74.56196     0.87700
      1180 68535.70653    72.93075    75.06743     0.86971
      1181 68590.53510    73.02926    75.30536     0.86484
      1182 68645.40753    73.10546    74.19082     0.87300
      1183 68700.32385    73.17512    73.26461     0.87982
      1184 68755.28411    73.24565    73.76188     0.87297
      1185 68810.28834    73.32087    74.01199     0.86882
      1186 68865.33657    73.40318    71.15699     0.89595
      1187 68920.42884    73.49437    73.32808     0.87208
      1188 68975.56518    73.59618    73.30594     0.87090
      1189 69030.74563    73.71079    73.44497     0.86836
      1190 69085.97023    73.84053    75.50751     0.84724
      1191 69141.23901    73.98831    74.11679     0.85923
      1192 69196.55200    74.15771    74.54186     0.85357
      1193 69251.90924    74.35331    75.74965     0.84035
      1194 69307.31077    74.58092    76.02798     0.83574
      1195 69362.75662    74.84806    75.27002     0.84048
      1196 69418.24682    75.16462    75.61158     0.83456
      1197 69473.78142    75.54373    74.53137     0.84172
      1198 69529.36044    76.00322    77.83974     0.80863
      1199 69584.98393    76.56770    74.80273     0.83323
      1200 69640.65192    77.27191    75.53733     0.82348
      1201 69696.36444    78.16618    76.12278     0.81512
      1202 69752.12153    79.47467    76.19483     0.81150
      1203 69807.92323    81.25079    77.07323     0.80113
      1204 69863.76957    83.60121    79.80106     0.77587
      1205 69919.66058    86.95363    80.41120     0.76901
      1206 69975.59631    93.18009    85.11537     0.73127
      1207 70031.57679   108.82842    94.49830     0.66721
      1208 70087.60205   151.40724   130.47463     0.50083
      1209 70143.67213   249.58371   233.32602     0.29245
      1210 70199.78707   418.22949   421.77876     0.16577
      1211 70255.94690   610.79076   626.72175     0.11254
      1212 70312.15166   712.74984   711.96856     0.09911
      1213 70368.40138   656.29343   644.68600     0.10898
      1214 70424.69610   499.02590   489.42404     0.14223
      1215 70481.03586   336.71745   329.28597     0.20800
      1216 70537.42068   220.76743   227.90861     0.29430
      1217 70593.85062   153.63457   164.57316     0.39754
      1218 70650.32570   118.74718   127.63433     0.49996
      1219 70706.84596   101.14412   112.29306     0.55949
      1220 70763.41144    92.09277   101.23108     0.61175
      1221 70820.02217    87.30073    92.31072     0.66146
      1222 70876.67819    84.74915    89.67618     0.67685
      1223 70933.37953    83.44466    88.13191     0.68583
      1224 70990.12623    82.88744    86.58993     0.69513
      1225 71046.91833    82.85152    86.58378     0.69406
      1226 71103.75587    83.27219    84.81976     0.70537
      1227 71160.63887    84.18783    85.08786     0.70254
      1228 71217.56738    85.73535    85.81777     0.69646
      1229 71274.54144    88.26196    88.34794     0.67838
      1230 71331.56107    92.95694    90.45833     0.66378
      1231 71388.62632   104.40715    99.99014     0.60761
      1232 71445.73722   136.79708   132.27121     0.47334
      1233 71502.89381   218.58956   209.79267     0.30945
      1234 71560.09613   375.90654   373.19055     0.17889
      1235 71617.34420   583.83272   596.09907     0.11349
      1236 71674.63808   731.79327   734.61801     0.09242
      1237 71731.97779   713.86592   695.96064     0.09735
      1238 71789.36337   562.03481   542.65594     0.12401
      1239 71846.79486   383.33805   370.08058     0.17946
      1240 71904.27230   247.97054   239.07118     0.27186
      1241 71961.79571   167.26939   168.41077     0.37636
      1242 72019.36515   124.84697   131.10912     0.47202
      1243 72076.98064   103.36743   110.55052     0.54866
      1244 72134.64223    92.17661    99.65197     0.59988
      1245 72192.34994    85.78914    94.32962     0.62789
      1246 72250.10382    82.14723    88.61112     0.66126
      1247 72307.90390    79.96834    84.31220     0.68846
      1248 72365.75023    78.55677    82.27234     0.70131
      1249 72423.64283    77.56069    78.02505     0.73173
      1250 72481.58174    76.80945    79.77441     0.71643
      1251 72539.56701    76.21944    78.30794     0.72584
      1252 72597.59866    75.74483    76.18898     0.74060
      1253 72655.67674    75.35677    74.90210     0.74893
      1254 72713.80128    75.03533    76.60485     0.73272
      1255 72771.97232    74.76589    76.95424     0.72792
      1256 72830.18990    74.53787    74.43758     0.74676
      1257 72888.45405    74.34322    74.77394     0.74226
      1258 72946.76482    74.17580    73.99332     0.74692
      1259 73005.12223    74.03079    74.83128     0.73782
      1260 73063.52633    73.90440    71.98865     0.75964
      1261 73121.97715    73.79363    73.05682     0.74802
      1262 73180.47473    73.69603    73.94337     0.73832
      1263 73239.01911    73.60975    71.40916     0.75807
      1264 73297.61032    73.53305    71.87205     0.75224
      1265 73356.24841    73.46456    72.28565     0.74698
      1266 73414.93341    73.40319    71.94795     0.74851
      1267 73473.66536    73.34800    71.55155     0.75076
      1268 73532.44429    73.24237    72.09676     0.74456
      1269 73591.27024    72.86932    74.04470     0.72607
      1270 73650.14326    72.67691    73.61395     0.72698
      1271 73709.06338    72.59759    72.40292     0.73422
      1272 73768.03063    72.56566    72.05342     0.73447
      1273 73827.04505    72.55355    70.42421     0.74618
      1274 73886.10669    72.54971    70.38838     0.74442
      1275 73945.21557    72.54932    71.21951     0.73535
      1276 74004.37174    72.55002    72.17300     0.72541
      1277 74063.57524    72.55202    73.28447     0.71426
      1278 74122.82610    72.55401    71.12660     0.73023
      1279 74182.12436    72.55597    70.36652     0.73504
      1280 74241.47006    72.55792    72.94241     0.71166
      1281 74300.86324    72.55986    71.43996     0.72209
      1282 74360.30393    72.56177    70.59180     0.72720
      1283 74419.79217    72.56367    72.44123     0.70968
      1284 74479.32801    72.56556    71.86610     0.71224
      1285 74538.91147    72.56742    71.76236     0.71098
      1286 74598.54260    72.56927    75.23587     0.68144
      1287 74658.22143    72.57110    72.15519     0.70332
      1288 74717.94801    72.57292    73.52266     0.69027
      1289 74777.72237    72.57471    71.89185     0.70133
      1290 74837.54455    72.57649    71.16728     0.70520
      1291 74897.41458    72.57826    72.86174     0.68902
      1292 74957.33251    72.58000    70.65090     0.70378
      1293 75017.29838    72.58173    73.88529     0.67515
      1294 75077.31222    72.58345    71.74174     0.68916
      1295 75137.37407    72.58514    73.53257     0.67280
      1296 75197.48397    72.58682    73.98229     0.66712
      1297 75257.64195    72.58848    74.11465     0.66362
      1298 75317.84807    72.59013    73.39470     0.66637
      1299 75378.10235    72.59175    76.31266     0.64274
      1300 75438.40483    72.59336    75.93993     0.64324
      1301 75498.75555    72.59495    74.05537     0.65475
      1302 75559.15456    72.59653    74.89026     0.64673
      1303 75619.60188    72.59809    73.83629     0.65259
      1304 75680.09756    72.59963    72.19563     0.66294
      1305 75740.64164    72.60115    72.99655     0.65455
      1306 75801.23415    72.60266    72.45411     0.65595
      1307 75861.87514    72.60415    73.69288     0.64426
      1308 75922.56464    72.60562    71.45447     0.65878
      1309 75983.30269    72.60708    71.12092     0.65941
      1310 76044.08933    72.60852    73.77037     0.63800
      1311 76104.92460    72.60994    71.91197     0.64987
      1312 76165.80854    72.61134    73.22175     0.63845
      1313 76226.74119    72.61273    69.70392     0.66320
      1314 76287.72258    72.61410    74.50391     0.62611
      1315 76348.75276    72.61545    72.94967     0.63570
      1316 76409.83176    72.61679    72.08997     0.64042
      1317 76470.95963    72.61810    70.94673     0.64722
      1318 76532.13640    72.61940    71.51567     0.64122
      1319 76593.36211    72.62069    70.60681     0.64632
      1320 76654.63680    72.62195    71.19309     0.64026
      1321 76715.96051    72.62320    72.41346     0.62984
      1322 76777.33327    72.62443    75.82688     0.60496
      1323 76838.75514    72.62565    73.34103     0.62081
      1324 76900.22615    72.62684    70.20470     0.64233
      1325 76961.74633    72.62802    72.88286     0.62134
      1326 77023.31572    72.62919    72.97329     0.61902
      1327 77084.93438    72.63033    71.33230     0.62859
      1328 77146.60232    72.63146    70.37855     0.63338
      1329 77208.31961    72.63257    70.60611     0.62982
      1330 77270.08626    72.63366    70.27233     0.63052
      1331 77331.90233    72.63474    72.17030     0.61516
      1332 77393.76785    72.63580    71.22618     0.62023
      1333 77455.68287    72.63684    69.69486     0.62979
      1334 77517.64741    72.63786    73.32088     0.60251
      1335 77579.66153    72.63887    70.77461     0.61906
      1336 77641.72526    72.63986    72.70926     0.60408
      1337 77703.83864    72.64083    72.49011     0.60403
      1338 77766.00171    72.64179    72.10518     0.60515
      1339 77828.21451    72.64273    70.77087     0.61317
      1340 77890.47708    72.64365    72.65973     0.59863
      1341 77952.78947    72.64455    74.11064     0.58736
      1342 78015.15170    72.64544    72.53822     0.59611
      1343 78077.56382    72.64630    72.54536     0.59385
      1344 78140.02587    72.64716    72.46630     0.59172
      1345 78202.53789    72.64799    72.09127     0.59128
      1346 78265.09992    72.64881    71.72762     0.59109
      1347 78327.71200    72.64961    71.85752     0.58797
      1348 78390.37417    72.65039    74.25513     0.57030
      1349 78453.08647    72.65115    73.60507     0.57266
      1350 78515.84894    72.65190    72.48484     0.57808
      1351 78578.66162    72.65263    72.86844     0.57362
      1352 78641.52455    72.65334    71.83581     0.57842
      1353 78704.43777    72.65404    73.59794     0.56473
      1354 78767.40132    72.65472    70.33939     0.58372
      1355 78830.41524    72.65538    71.53218     0.57288
      1356 78893.47957    72.65602    72.46619     0.56412
      1357 78956.59435    72.65665    71.43842     0.56828
      1358 79019.75963    72.65726    70.05700     0.57479
      1359 79082.97544    72.65785    71.11930     0.56490
      1360 79146.24182    72.65842    71.71527     0.55812
      1361 79209.55881    72.87196    72.96072     0.54744
      1362 79272.92646    73.32922    72.19649     0.54970
      1363 79336.34480    73.57408    73.26299     0.54096
      1364 79399.81387    73.70690    73.58962     0.53701
      1365 79463.33373    73.79891    75.37290     0.52440
      1366 79526.90439    73.87847    76.89548     0.51373
      1367 79590.52592    73.95716    74.22520     0.52716
      1368 79654.19834    74.04003    73.79595     0.52758
      1369 79717.92170    74.12960    70.82381     0.54345
      1370 79781.69603    74.22743    73.27541     0.52589
      1371 79845.52139    74.33527    69.36216     0.54760
      1372 79909.39781    74.45463    72.44401     0.52550
      1373 79973.32532    74.58724    73.02330     0.51928
      1374 80037.30399    74.73513    73.73064     0.51257
      1375 80101.33383    74.90077    73.67547     0.51042
      1376 80165.41490    75.08713    72.57638     0.51439
      1377 80229.54723    75.29781    73.49436     0.50690
      1378 80293.73087    75.53725    73.17508     0.50664
      1379 80357.96585    75.81095    71.72239     0.51296
      1380 80422.25222    76.12598    71.44205     0.51258
      1381 80486.59002    76.49109    71.45855     0.51089
      1382 80550.97930    76.91726    73.94510     0.49544
      1383 80615.42008    77.41887    75.91462     0.48332
      1384 80679.91242    78.01481    75.49379     0.48351
      1385 80744.45635    78.73019    76.49751     0.47556
      1386 80809.05191    79.59905    77.00793     0.47019
      1387 80873.69915    80.66834    73.69106     0.48489
      1388 80938.39811    82.00428    76.52129     0.46740
      1389 81003.14883    83.70295    76.18235     0.46689
      1390 81067.95135    85.91190    78.23459     0.45493
      1391 81132.80571    88.89681    83.65111     0.42878
      1392 81197.71195    93.31531    83.67553     0.42735
      1393 81262.67012   101.26369    95.09813     0.38160
      1394 81327.68026   119.26070   111.20699     0.33151
      1395 81392.74240   163.49272   159.80738     0.23828
      1396 81457.85660   262.10196   271.53286     0.14468
      1397 81523.02288   441.74422   479.65140     0.08341
      1398 81588.24130   692.36019   752.93854     0.05348
      1399 81653.51190   932.01548   984.02978     0.04091
      1400 81718.83470  1031.02922  1051.25613     0.03815
      1401 81784.20977   933.85808   934.66036     0.04263
      1402 81849.63714   713.62616   701.15953     0.05626
      1403 81915.11685   481.66685   478.86519     0.08119
      1404 81980.64894   306.07440   314.40189     0.12111
      1405 82046.23346   198.75497   215.17894     0.17246
      1406 82111.87045   141.68125   160.77520     0.22476
      1407 82177.55995   113.28580   128.38772     0.27418
      1408 82243.30199    99.10172   108.99326     0.31554
      1409 82309.09664    91.60295    95.84851     0.35137
      1410 82374.94391    87.25295    92.30541     0.36167
      1411 82440.84387    84.45568    87.81971     0.37621
      1412 82506.79654    82.48864    84.86969     0.38591
      1413 82572.80198    81.01161    82.07037     0.39529
      1414 82638.86022    79.85577    79.67996     0.40314
      1415 82704.97131    78.92838    77.74324     0.40928
      1416 82771.13529    78.17177    77.32488     0.40916
      1417 82837.35220    77.54645    73.83705     0.42336
      1418 82903.62208    77.02425    75.95981     0.41172
      1419 82969.94497    76.58409    71.98498     0.42811
      1420 83036.32093    76.20972    74.14823     0.41533
      1421 83102.74999    75.88904    72.91211     0.41860
      1422 83169.23219    75.61266    72.68155     0.41734
      1423 83235.76757    75.37324    74.79726     0.40550
      1424 83302.35619    75.16499    73.44511     0.40970
      1425 83368.99807    74.98329    72.19158     0.41383
      1426 83435.69327    74.82445    70.10916     0.42227
      1427 83502.44183    74.68556    72.10854     0.41113
      1428 83569.24378    74.56428    71.72909     0.41129
      1429 83636.09917    74.45882    72.54304     0.40593
      1430 83703.00805    74.36782    72.00944     0.40690
      1431 83769.97046    74.29033    71.45955     0.40806
      1432 83836.98644    74.22582    69.63880     0.41524
      1433 83904.05603    74.17421    71.05144     0.40682
      1434 83971.17927    74.13587    73.17156     0.39531
      1435 84038.35621    74.11184    73.35890     0.39264
      1436 84105.58690    74.10365    73.74189     0.38922
      1437 84172.87137    73.65093    73.64346     0.38794
      1438 84240.20966    73.40138    74.74452     0.38156
      1439 84307.60183    73.39522    72.56410     0.38963
      1440 84375.04791    73.51583    71.31854     0.39417
      1441 84442.54795    73.77386    73.59573     0.38284
      1442 84510.10199    74.33748    71.25379     0.39131
      1443 84577.71007    75.68816    72.21633     0.38479
      1444 84645.37224    78.78268    77.00053     0.36281
      1445 84713.08854    84.83702    86.43473     0.32770
      1446 84780.85901    94.31631    95.70119     0.29919
      1447 84848.68370   105.43050   109.98921     0.26400
      1448 84916.56264   113.56406   115.97372     0.25072
      1449 84984.49589   114.12210   114.40413     0.25227
      1450 85052.48349   107.21126   103.24969     0.27406
      1451 85120.52548    96.99488    96.51779     0.28833
      1452 85188.62190    87.61658    84.43468     0.32065
      1453 85256.77279    81.02336    79.76027     0.33439
      1454 85324.97821    77.16645    75.27056     0.34947
      1455 85393.23820    75.16309    75.51908     0.34760
      1456 85461.55279    74.17394    74.86344     0.34939
      1457 85529.92203    73.67629    71.65820     0.36146
      1458 85598.34597    73.40598    73.16020     0.35435
      1459 85666.82464    73.24240    73.25126     0.35258
      1460 85735.35810    73.13219    72.37117     0.35442
      1461 85803.94639    73.05148    69.74604     0.36332
      1462 85872.58955    72.98908    74.53986     0.34189
      1463 85941.28762    72.93926    72.25597     0.34846
      1464 86010.04065    72.89864    70.63355     0.35290
      1465 86078.84868    72.86500    71.33316     0.34824
      1466 86147.71176    72.83678    71.46203     0.34611
      1467 86216.62993    72.81283    71.08970     0.34595
      1468 86285.60323    72.79229    74.20890     0.33246
      1469 86354.63172    72.77451    70.94689     0.34328
      1470 86423.71542    72.75898    70.05997     0.34523
      1471 86492.85439    72.74531    71.21138     0.33909
      1472 86562.04868    72.73318    71.94600     0.33477
      1473 86631.29832    72.72236    67.02440     0.35323
      1474 86700.60335    72.71262    69.47669     0.34228
      1475 86769.96384    72.70381    70.26908     0.33829
      1476 86839.37981    72.69579    70.87052     0.33507
      1477 86908.85131    72.68845    70.89448     0.33418
      1478 86978.37839    72.68170    69.96668     0.33699
      1479 87047.96110    72.67545    68.80955     0.34083
      1480 87117.59946    72.66964    72.90128     0.32454
      1481 87187.29354    72.66423    74.00929     0.31995
      1482 87257.04338    72.65915    70.84315     0.33099
      1483 87326.84901    72.65437    69.18128     0.33677
      1484 87396.71049    72.64985    71.17002     0.32810
      1485 87466.62786    72.64557    73.79684     0.31733
      1486 87536.60116    72.63510    71.87647     0.32314
      1487 87606.63044    72.60927    68.77931     0.33403
      1488 87676.71575    72.59818    72.07237     0.32129
      1489 87746.85712    72.59325    70.71934     0.32642
      1490 87817.05461    72.59051    68.32574     0.33593
      1491 87887.30825    72.58852    73.44306     0.31700
      1492 87957.61810    72.58678    74.37538     0.31406
      1493 88027.98419    72.58512    74.58845     0.31373
      1494 88098.40658    72.58351    70.58280     0.32877
      1495 88168.88530    72.58187    70.77942     0.32835
      1496 88239.42041    72.58022    72.75130     0.32094
      1497 88310.01195    72.57856    72.46394     0.32155
      1498 88380.65996    72.57689    74.58362     0.31355
      1499 88451.36449    72.57519    74.18875     0.31467
      1500 88522.12558    72.57349    70.52051     0.32822
      1501 88592.94328    72.57177    73.81051     0.31688
      1502 88663.81763    72.57003    69.23958     0.33460
      1503 88734.74869    72.56828    72.31344     0.32326
      1504 88805.73649    72.56652    72.12337     0.32396
      1505 88876.78108    72.56474    73.50548     0.31861
      1506 88947.88250    72.56295    74.42811     0.31470
      1507 89019.04081    72.56115    70.67047     0.32747
      1508 89090.25604    72.55933    69.80229     0.33014
      1509 89161.52824    72.55749    71.80834     0.32245
      1510 89232.85747    72.55564    69.73117     0.33030
      1511 89304.24375    72.55378    70.41303     0.32776
      1512 89375.68715    72.55191    70.12929     0.32874
      1513 89447.18770    72.55002    70.86626     0.32564
      1514 89518.74545    72.54811    73.42994     0.31580
      1515 89590.36044    72.54619    69.20317     0.33089
      1516 89662.03273    72.54426    70.33703     0.32625
      1517 89733.76236    72.54232    72.55527     0.31788
      1518 89805.54937    72.54036    70.81734     0.32401
      1519 89877.39381    72.53838    72.57501     0.31733
      1520 89949.29572    72.53640    69.05894     0.33010
      1521 90021.25516    72.53440    73.46693     0.31335
      1522 90093.27216    72.53238    74.93748     0.30759
      1523 90165.34678    72.53036    72.13824     0.31638
      1524 90237.47906    72.52832    71.41581     0.31780
      1525 90309.66904    72.52626    72.65857     0.31205
      1526 90381.91678    72.52420    73.19671     0.30886
      1527 90454.22231    72.52212    73.60236     0.30626
      1528 90526.58569    72.52002    69.60911     0.31934
      1529 90599.00696    72.51792    75.10451     0.29922
      1530 90671.48616    72.51580    72.31419     0.30777
      1531 90744.02335    72.51366    72.42627     0.30656
      1532 90816.61857    72.51152    74.39665     0.29899
      1533 90889.27186    72.50936    73.27015     0.30172
      1534 90961.98328    72.50719    74.59684     0.29609
      1535 91034.75287    72.50500    71.22406     0.30596
      1536 91107.58067    72.50280    73.05549     0.29808
      1537 91180.46674    72.50059    71.13006     0.30309
      1538 91253.41111    72.49837    70.73969     0.30337
      1539 91326.41384    72.49613    73.59347     0.29316
      1540 91399.47497    72.49388    72.97187     0.29473
      1541 91472.59455    72.49162    71.25971     0.30000
      1542 91545.77262    72.48935    76.13284     0.28365
      1543 91619.00924    72.48706    73.96882     0.28983
      1544 91692.30445    72.48476    74.98245     0.28581
      1545 91765.65829    72.48245    75.93629     0.28178
      1546 91839.07082    72.48013    73.26319     0.28893
      1547 91912.54208    72.47779    73.09572     0.28826
      1548 91986.07211    72.47544    73.24834     0.28675
      1549 92059.66097    72.47308    71.31435     0.29230
      1550 92133.30870    72.47071    74.80972     0.28073
      1551 92207.01534    72.46833    75.72032     0.27782
      1552 92280.78096    72.46593    73.45750     0.28464
      1553 92354.60558    72.46352    73.93558     0.28270
      1554 92428.48927    72.46110    73.66503     0.28284
      1555 92502.43206    72.45867    73.83669     0.28134
      1556 92576.43400    72.45623    71.27673     0.28841
      1557 92650.49515    72.45377    74.64320     0.27654
      1558 92724.61555    72.45130    74.23675     0.27652
      1559 92798.79524    72.44882    73.03662     0.27882
      1560 92873.03427    72.44633    75.96921     0.26853
      1561 92947.33270    72.44383    68.07943     0.29187
      1562 93021.69057    72.44132    71.09741     0.28077
      1563 93096.10792    72.43879    73.43992     0.27300
      1564 93170.58481    72.43626    73.78848     0.27163
      1565 93245.12127    72.43371    72.56442     0.27484
      1566 93319.71737    72.43115    72.64648     0.27361
      1567 93394.37315    72.42858    72.10789     0.27390
      1568 93469.08864    72.42600    74.70131     0.26475
      1569 93543.86391    72.42341    74.47236     0.26432
      1570 93618.69901    72.42080    74.30666     0.26404
      1571 93693.59397    72.41819    76.54445     0.25699
      1572 93768.54884    72.41557    73.19297     0.26565
      1573 93843.56368    72.41293    74.75333     0.26015
      1574 93918.63853    72.41028    72.70051     0.26519
      1575 93993.77344    72.40763    71.72436     0.26743
      1576 94068.96846    72.40496    73.55096     0.26144
      1577 94144.22363    72.40228    75.63325     0.25484
      1578 94219.53901    72.39959    75.37071     0.25469
      1579 94294.91464    72.39689    75.85643     0.25245
      1580 94370.35058    72.39418    71.77035     0.26314
      1581 94445.84686    72.39147    77.61851     0.24607
      1582 94521.40353    72.38874    75.88967     0.24995
      1583 94597.02066    72.38600    75.20086     0.25119
      1584 94672.69827    72.38325    75.72111     0.24895
      1585 94748.43643    72.38049    75.18167     0.24942
      1586 94824.23518    72.37772    76.51705     0.24481
      1587 94900.09457    72.37494    74.80208     0.24828
      1588 94976.01465    72.37215    74.63820     0.24784
      1589 95051.99546    72.36935    74.86746     0.24657
      1590 95128.03705    72.36654    73.80548     0.24885
      1591 95204.13948    72.36372    72.57493     0.25155
      1592 95280.30279    72.36089    76.48467     0.24033
      1593 95356.52704    72.35805    75.39895     0.24223
      1594 95432.81226    72.35520    79.06929     0.23207
      1595 95509.15851    72.35235    74.96618     0.24148
      1596 95585.56584    72.34948    74.40684     0.24251
      1597 95662.03429    72.34661    73.32456     0.24526
      1598 95738.56392    72.34372    74.51416     0.24189
      1599 95815.15477    72.70770    74.13120     0.24259
      1600 95891.80689    73.28060    71.34030     0.24990
      1601 95968.52034    73.72333    80.96299     0.22492
      1602 96045.29515    73.91250    75.84475     0.23672
      1603 96122.13139    74.02549    76.51553     0.23419
      1604 96199.02909    74.11735    75.39180     0.23606
      1605 96275.98832    74.20656    76.14611     0.23317
      1606 96353.00911    74.29949    81.14353     0.22047
      1607 96430.09151    74.39859    77.59492     0.22789
      1608 96507.23559    74.50577    78.58906     0.22463
      1609 96584.44138    74.62200    78.82643     0.22330
      1610 96661.70893    74.74830    78.19205     0.22429
      1611 96739.03830    75.59567    77.29879     0.22591
      1612 96816.42953    76.86045    78.66332     0.22181
      1613 96893.88267    78.05804    77.86059     0.22249
      1614 96971.39778    78.67881    80.16897     0.21613
      1615 97048.97490    79.13163    77.78344     0.22050
      1616 97126.61407    79.55260    75.13960     0.22585
      1617 97204.31537    79.98893    76.33906     0.22235
      1618 97282.07882    80.45912    78.81852     0.21630
      1619 97359.90448    80.97275    79.24178     0.21525
      1620 97437.79241    81.53909    74.87515     0.22544
      1621 97515.74264    82.16608    79.11171     0.21567
      1622 97593.75523    82.86279    80.31366     0.21322
      1623 97671.83024    83.64030    77.17182     0.22063
      1624 97749.96770    84.51205    80.67113     0.21295
      1625 97828.16768    85.49449    82.22628     0.20957
      1626 97906.43021    86.60794    81.74220     0.21035
      1627 97984.75535    87.87776    82.68634     0.20797
      1628 98063.14316    89.33596    83.59609     0.20562
      1629 98141.59367    91.02386    82.58327     0.20717
      1630 98220.10695    92.99438    80.33656     0.21133
      1631 98298.68303    95.31720    83.62200     0.20381
      1632 98377.32198    98.08610    87.68015     0.19527
      1633 98456.02384   101.43132    91.76402     0.18740
      1634 98534.78866   105.54857    93.43431     0.18425
      1635 98613.61649   110.78875    93.78920     0.18344
      1636 98692.50738   117.95715   100.05841     0.17345
      1637 98771.46139   129.20243   105.35022     0.16570
      1638 98850.47856   150.12337   121.52981     0.14609
      1639 98929.55894   193.33108   157.09413     0.11603
      1640 99008.70259   281.52023   232.32529     0.08086
      1641 99087.90955   444.33787   402.79104     0.04792
      1642 99167.17988   702.49837   681.75760     0.02872
      1643 99246.51362  1040.68825  1066.19039     0.01848
      1644 99325.91083  1384.06840  1396.80882     0.01413
      1645 99405.37156  1605.71316  1594.44571     0.01236
      1646 99484.89586  1602.53026  1584.20563     0.01241
      1647 99564.48377  1388.17032  1353.30843     0.01445
      1648 99644.13536  1071.93252  1058.79981     0.01836
      1649 99723.85067   771.53237   780.94709     0.02468
      1650 99803.62975   564.51971   590.56454     0.03231
      1651 99883.47265   490.51196   522.11585     0.03631
      1652 99963.37943   578.73717   604.97436     0.03138
      1653 100043.35013   865.75372   884.73885     0.02159
      1654 100123.38481  1375.93355  1457.08189     0.01317
      1655 100203.48352  2067.07357  2209.14668     0.00870
      1656 100283.64631  2777.57725  2894.27814     0.00663
      1657 100363.87323  3237.02675  3279.74234     0.00584
      1658 100444.16432  3222.02746  3161.40139     0.00604
      1659 100524.51966  2754.50632  2685.55213     0.00708
      1660 100604.93927  2060.35446  2044.39253     0.00926
      1661 100685.42322  1380.28461  1394.12056     0.01349
      1662 100765.97156   855.69070   917.61281     0.02030
      1663 100846.58434   516.41449   602.10048     0.03053
      1664 100927.26161   324.66860   399.12210     0.04525
      1665 101008.00342   225.58645   299.32630     0.05933
      1666 101088.80982   175.81386   230.01628     0.07572
      1667 101169.68087   149.58397   185.55557     0.09200
      1668 101250.61661   134.13049   156.85592     0.10675
      1669 101331.61710   123.80276   141.39620     0.11672
      1670 101412.68240   116.20580   130.55715     0.12486
      1671 101493.81254   110.28497   113.36860     0.14079
      1672 101575.00759   105.51879   112.31891     0.14157
      1673 101656.26760   101.60619   104.23707     0.15063
      1674 101737.59261    98.34937    99.41858     0.15667
      1675 101818.98269    95.60777    99.88440     0.15590
      1676 101900.43787    93.27734   100.49154     0.15486
      1677 101981.95822    91.27917    90.63191     0.16850
      1678 102063.54379    89.55250    89.79556     0.16929
      1679 102145.19463    88.04990    89.78515     0.16879
      1680 102226.91078    86.73387    84.58500     0.17689
      1681 102308.69231    85.57557    85.07500     0.17586
      1682 102390.53926    84.54963    89.14693     0.16915
      1683 102472.45170    83.63631    82.21860     0.18086
      1684 102554.42966    82.81955    81.44941     0.18214
      1685 102636.47320    82.08607    79.65675     0.18511
      1686 102718.58238    81.42481    81.98109     0.18023
      1687 102800.75725    80.82649    83.17026     0.17750
      1688 102882.99785    80.28288    76.74719     0.18898
      1689 102965.30425    79.37661    80.22320     0.18198
      1690 103047.67649    78.18576    78.84352     0.18453
      1691 103130.11463    77.61536    77.91963     0.18641
      1692 103212.61873    77.22957    79.90744     0.18255
      1693 103295.18882    76.91657    79.22272     0.18331
      1694 103377.82497    76.64095    73.55336     0.19359
      1695 103460.52723    76.39051    74.63114     0.18995
      1696 103543.29565    76.16068    75.29676     0.18741
      1697 103626.13029    75.94785    79.48130     0.17864
      1698 103709.03119    75.75039    73.36598     0.18998
      1699 103791.99842    75.56701    73.07213     0.19023
      1700 103875.03202    75.39310    73.59990     0.18901
      1701 103958.13204    74.24768    75.99467     0.18417
      1702 104041.29855    72.63569    71.46903     0.19348
      1703 104124.53159    72.19059    68.99547     0.19881
      1704 104207.83121    72.05549    72.82843     0.18969
      1705 104291.19748    72.01295    77.04948     0.18013
      1706 104374.63044    71.99799    73.26178     0.18634
      1707 104458.13014    71.99131    72.37675     0.18707
      1708 104541.69664    71.98790    73.73268     0.18346
      1709 104625.33000    71.98449    77.65737     0.17538
      1710 104709.03027    71.98107    75.46056     0.17898
      1711 104792.79749    71.97766    78.55419     0.17283
      1712 104876.63173    71.97425    78.43466     0.17259
      1713 104960.53303    71.97084    73.95502     0.18036
      1714 105044.50146    71.96743    71.41636     0.18450
      1715 105128.53706    71.96402    71.20269     0.18375
      1716 105212.63989    71.96061    68.98060     0.18719
      1717 105296.81000    71.95720    73.41493     0.17721
      1718 105381.04745    71.95379    72.47045     0.17840
      1719 105465.35229    71.95038    76.72605     0.16993
      1720 105549.72457    71.94698    71.99082     0.17821
      1721 105634.16435    71.94357    71.14918     0.17900
      1722 105718.67168    71.94017    73.85325     0.17260
      1723 105803.24662    71.93677    73.41752     0.17219
      1724 105887.88922    71.93337    74.75911     0.16873
      1725 105972.59953    71.92997    71.60860     0.17385
      1726 106057.37761    71.92657    70.96448     0.17442
      1727 106142.22351    71.92317    74.51472     0.16706
      1728 106227.13729    71.91978    75.59666     0.16439
      1729 106312.11900    71.91639    75.00431     0.16462
      1730 106397.16869    71.91300    77.59867     0.15933
      1731 106482.28643    71.90961    75.57838     0.16197
      1732 106567.47226    71.90623    70.50155     0.17042
      1733 106652.72624    71.90284    74.70889     0.16197
      1734 106738.04842    71.89946    72.41827     0.16515
      1735 106823.43885    71.89608    71.24230     0.16622
      1736 106908.89761    71.89271    73.11466     0.16184
      1737 106994.42472    71.88933    73.91254     0.15963
      1738 107080.02026    71.88596    70.72627     0.16453
      1739 107165.68428    71.88260    75.07229     0.15646
      1740 107251.41683    71.87923    71.05333     0.16301
      1741 107337.21796    71.87587    76.78189     0.15311
      1742 107423.08774    71.87251    72.66084     0.15987
      1743 107509.02621    71.86916    73.87972     0.15769
      1744 107595.03343    71.86580    72.76934     0.15951
      1745 107681.10945    71.86246    73.84724     0.15771
      1746 107767.25434    71.85911    75.39496     0.15514
      1747 107853.46814    71.85577    70.73410     0.16299
      1748 107939.75092    71.85243    76.12853     0.15324
      1749 108026.10272    71.84910    75.76716     0.15329
      1750 108112.52360    71.84577    77.92742     0.14939
      1751 108199.01362    71.84244    75.91429     0.15205
      1752 108285.57283    71.83912    74.18229     0.15438
      1753 108372.20129    71.83580    72.69776     0.15644
      1754 108458.89905    71.83249    75.94961     0.15062
      1755 108545.66617    71.82918    74.86830     0.15188
      1756 108632.50270    71.82588    73.35991     0.15397
      1757 108719.40870    71.82258    73.82927     0.15292
      1758 108806.38423    71.81929    76.08872     0.14902
      1759 108893.42934    71.81600    71.88222     0.15559
      1760 108980.54408    71.81271    73.58936     0.15227
      1761 109067.72852    71.80943    73.07363     0.15260
      1762 109154.98270    71.80615    70.91457     0.15571
      1763 109242.30669    71.80288    71.66295     0.15377
      1764 109329.70053    71.79962    67.27308     0.16083
      1765 109417.16429    71.79636    74.29184     0.14799
      1766 109504.69802    71.79311    71.39355     0.15191
      1767 109592.30178    71.78986    69.80958     0.15380
      1768 109679.97562    71.78662    75.03288     0.14476
      1769 109767.71960    71.78338    71.62003     0.14977
      1770 109855.53378    71.78015    76.42824     0.14168
      1771 109943.41821    71.77692    72.32626     0.14724
      1772 110031.37294    71.77370    78.53847     0.13705
      1773 110119.39804    71.77049    76.72124     0.13875
      1774 110207.49356    71.76728    72.09370     0.14488
      1775 110295.65955    71.76408    69.61884     0.14824
      1776 110383.89608    71.76089    71.25674     0.14502
      1777 110472.20320    71.75770    68.75882     0.14832
      1778 110560.58096    71.75452    74.92293     0.13781
      1779 110649.02943    71.75134    74.73579     0.13714
      1780 110737.54865    71.74817    72.04779     0.14022
      1781 110826.13869    71.74501    72.85645     0.13826
      1782 110914.79960    71.74186    72.12867     0.13884
      1783 111003.53144    71.73871    68.60951     0.14398
      1784 111092.33426    71.73557    73.60922     0.13596
      1785 111181.20813    71.73244    76.88262     0.13086
      1786 111270.15310    71.72931    71.55361     0.13784
      1787 111359.16922    71.72620    70.89532     0.13824
      1788 111448.25656    71.72308    73.04365     0.13461
      1789 111537.41516    71.71998    75.85090     0.13034
      1790 111626.64509    71.71689    69.10601     0.13997
      1791 111715.94641    71.71380    75.80246     0.12990
      1792 111805.31917    71.71072    77.36773     0.12761
      1793 111894.76342    71.70765    73.33039     0.13295
      1794 111984.27923    71.70458    77.62885     0.12654
      1795 112073.86666    71.70153    77.67472     0.12562
      1796 112163.52575    71.69848    73.73185     0.12986
      1797 112253.25657    71.69544    75.04069     0.12708
      1798 112343.05917    71.69241    74.53618     0.12709
      1799 112432.93362    71.68938    70.87150     0.13190
      1800 112522.87997    71.68637    72.60363     0.12920
      1801 112612.89827    71.68336    74.74267     0.12596
      1802 112702.98859    71.68037    71.81334     0.12966
      1803 112793.15098    71.67738    73.89880     0.12639
      1804 112883.38550    71.67440    72.61699     0.12776
      1805 112973.69221    71.67143    73.48764     0.12616
      1806 113064.07117    71.66847    72.66107     0.12684
      1807 113154.52242    71.66552    77.19591     0.12037
      1808 113245.04604    71.66257    71.36245     0.12744
      1809 113335.64208    71.65964    72.51417     0.12533
      1810 113426.31059    71.65671    76.69541     0.11971
      1811 113517.05164    71.65380    74.90670     0.12194
      1812 113607.86528    71.65089    74.21821     0.12292
      1813 113698.75157    71.64800    66.28578     0.13434
      1814 113789.71057    71.64511    73.71260     0.12370
      1815 113880.74234    71.64224    77.93096     0.11823
      1816 113971.84694    71.63937    69.96451     0.12842
      1817 114063.02441    71.63651    70.99928     0.12667
      1818 114154.27483    71.63367    69.96035     0.12793
      1819 114245.59825    71.63083    74.64716     0.12149
      1820 114336.99473    71.62800    79.27330     0.11568
      1821 114428.46433    71.62519    71.67552     0.12498
      1822 114520.00710    71.62238    78.03160     0.11648
      1823 114611.62310    71.61959    72.57319     0.12281
      1824 114703.31240    71.61680    70.52831     0.12512
      1825 114795.07505    71.61403    75.05691     0.11894
      1826 114886.91111    71.61127    75.40229     0.11838
      1827 114978.82064    71.60851    69.91583     0.12558
      1828 115070.80370    71.60577    76.58051     0.11691
      1829 115162.86034    71.60304    69.93859     0.12549
      1830 115254.99063    71.60032    74.31154     0.11942
      1831 115347.19462    71.59761    73.47010     0.12021
      1832 115439.47238    71.59491    73.60164     0.11973
      1833 115531.82396    71.59223    68.68393     0.12607
      1834 115624.24941    71.58955    72.44656     0.12059
      1835 115716.74881    71.58689    74.57924     0.11761
      1836 115809.32221    71.58423    76.51790     0.11507
      1837 115901.96967    71.58159    72.95783     0.11931
      1838 115994.69125    71.57896    76.30293     0.11476
      1839 116087.48700    71.57634    71.93417     0.11963
      1840 116180.35699    71.57374    73.75149     0.11647
      1841 116273.30128    71.57114    70.60184     0.11971
      1842 116366.31992    71.56856    74.58506     0.11400
      1843 116459.41297    71.56599    70.89539     0.11812
      1844 116552.58050    71.56343    70.36628     0.11856
      1845 116645.82257    71.56088    68.19172     0.12145
      1846 116739.13923    71.55835    71.56544     0.11682
      1847 116832.53054    71.55582    76.68931     0.11028
      1848 116925.99656    71.55331    73.83342     0.11317
      1849 117019.53736    71.55081    72.56946     0.11410
      1850 117113.15299    71.54833    73.63079     0.11216
      1851 117206.84351    71.54585    75.02868     0.10993
      1852 117300.60899    71.54339    70.54682     0.11493
      1853 117394.44947    71.54094    68.78366     0.11709
      1854 117488.36503    71.53850    72.90243     0.11205
      1855 117582.35572    71.53608    70.53766     0.11521
      1856 117676.42161    71.53367    70.57685     0.11539
      1857 117770.56275    71.53127    78.58870     0.10595
      1858 117864.77920    71.52888    67.11313     0.11992
      1859 117959.07102    71.52651    71.26875     0.11393
      1860 118053.43828    71.52415    72.28288     0.11217
      1861 118147.88103    71.52180    78.49727     0.10447
      1862 118242.39933    71.51947    67.41413     0.11726
      1863 118336.99325    71.51715    75.38980     0.10670
      1864 118431.66285    71.51484    73.29306     0.10839
      1865 118526.40818    71.51254    74.63552     0.10607
      1866 118621.22930    71.51026    72.24021     0.10813
      1867 118716.12629    71.50799    70.63024     0.10957
      1868 118811.09919    71.50573    76.25250     0.10289
      1869 118906.14807    71.50349    77.46117     0.10135
      1870 119001.27298    71.50126    70.62665     0.10876
      1871 119096.47400    71.49905    72.96157     0.10574
      1872 119191.75118    71.49684    73.44972     0.10489
      1873 119287.10458    71.49466    70.90174     0.10760
      1874 119382.53427    71.49248    68.78720     0.10994
      1875 119478.04029    71.49032    68.29047     0.11013
      1876 119573.62273    71.48817    66.54383     0.11164
      1877 119669.28162    71.48603    76.81588     0.09885
      1878 119765.01705    71.48391    71.70811     0.10342
      1879 119860.82906    71.48181    71.26998     0.10309
      1880 119956.71773    71.47971    66.14227     0.10875
      1881 120052.68310    71.47763    80.42512     0.09311
      1882 120148.72525    71.47557    76.34068     0.09697
      1883 120244.84423    71.47351    64.07962     0.11091
      1884 120341.04010    71.47148    74.67574     0.09767
      1885 120437.31294    71.46945    78.22550     0.09315
      1886 120533.66279    71.46744    72.04293     0.09831
      1887 120630.08972    71.46544    70.06875     0.09945
      1888 120726.59379    71.46346    74.45999     0.09420
      1889 120823.17506    71.46149    70.74307     0.09763
      1890 120919.83360    71.45954    67.26954     0.10142
      1891 121016.56947    71.45760    70.75896     0.09776
      1892 121113.38273    71.45567    74.11813     0.09457
      1893 121210.27343    71.45376    80.00627     0.08920
      1894 121307.24165    71.45186    71.93395     0.09713
      1895 121404.28744    71.44997    69.96922     0.09918
      1896 121501.41087    71.44810    74.55736     0.09414
      1897 121598.61200    71.44625    71.50384     0.09702
      1898 121695.89089    71.44441    69.63621     0.09871
      1899 121793.24760    71.44258    65.82539     0.10274
      1900 121890.68220    71.44076    68.11276     0.09975
      1901 121988.19475    71.43896    74.97567     0.09219
      1902 122085.78530    71.43718    71.69087     0.09509
      1903 122183.45393    71.43541    70.57566     0.09582
      1904 122281.20070    71.43365    67.86574     0.09833
      1905 122379.02566    71.43191    66.50451     0.09948
      1906 122476.92888    71.43018    73.52300     0.09160
      1907 122574.91042    71.42846    61.38952     0.10472
      1908 122672.97035    71.42676    76.53380     0.08794
      1909 122771.10872    71.42508    68.63569     0.09543
      1910 122869.32561    71.42341    69.57052     0.09409
      1911 122967.62107    71.42175    72.96629     0.09027
      1912 123065.99517    71.42010    72.36114     0.09038
      1913 123164.44796    71.41847    73.25966     0.08898
      1914 123262.97952    71.41686    74.04896     0.08771
      1915 123361.58991    71.41526    73.20682     0.08801
      1916 123460.27918    71.41367    68.07183     0.09270
      1917 123559.04740    71.41210    71.19512     0.08920
      1918 123657.89464    71.41054    66.25558     0.09397
      1919 123756.82096    71.40899    67.63807     0.09209
      1920 123855.82641    71.40746    69.47188     0.08962
      1921 123954.91107    71.40595    72.44191     0.08606
      1922 124054.07500    71.40444    74.78894     0.08336
      1923 124153.31826    71.40295    68.07638     0.08921
      1924 124252.64092    71.40148    65.09688     0.09198
      1925 124352.04303    71.40002    76.18236     0.08117
      1926 124451.52466    71.39857    68.93812     0.08745
      1927 124551.08588    71.39714    77.54687     0.07941
      1928 124650.72675    71.39572    72.17987     0.08364
      1929 124750.44733    71.39431    65.70895     0.08940
      1930 124850.24769    71.39292    72.04435     0.08270
      1931 124950.12789    71.39154    74.94617     0.07971
      1932 125050.08799    71.39018    76.06961     0.07848
      1933 125150.12806    71.38882    70.31558     0.08326
      1934 125250.24817    71.38749    68.69894     0.08454
      1935 125350.44836    71.38616    68.71741     0.08422
      1936 125450.72872    71.38485    65.24400     0.08733
      1937 125551.08931    71.38356    74.53743     0.07846
      1938 125651.53018    71.38227    70.73107     0.08140
      1939 125752.05140    71.38100    66.77549     0.08462
      1940 125852.65304    71.37974    70.60175     0.08049
      1941 125953.33516    71.37850    74.69971     0.07657
      1942 126054.09783    71.37727    72.06785     0.07848
      1943 126154.94111    71.37605    63.55511     0.08639
      1944 126255.86506    71.37485    78.41620     0.07337
      1945 126356.86976    71.37365    70.59718     0.07972
      1946 126457.95525    71.37247    69.26292     0.08079
      1947 126559.12162    71.37131    74.01318     0.07636
      1948 126660.36891    71.37015    71.78248     0.07774
      1949 126761.69721    71.36901    69.01320     0.07948
      1950 126863.10657    71.36789    73.85034     0.07459
      1951 126964.59705    71.36677    66.71869     0.07972
      1952 127066.16873    71.36567    68.73374     0.07704
      1953 127167.82166    71.36458    71.82546     0.07396
      1954 127269.55592    71.36350    70.93943     0.07453
      1955 127371.37157    71.36243    77.76598     0.06957
      1956 127473.26866    71.36137    74.60609     0.07213
      1957 127575.24728    71.36033    65.54992     0.08004
      1958 127677.30748    71.35930    72.08654     0.07449
      1959 127779.44932    71.35828    71.38493     0.07500
      1960 127881.67288    71.35727    75.18986     0.07194
      1961 127983.97822    71.35628    69.47819     0.07652
      1962 128086.36540    71.35529    70.43859     0.07564
      1963 128188.83449    71.35432    76.01773     0.07111
      1964 128291.38556    71.35336    77.01148     0.07025
      1965 128394.01867    71.35241    72.60059     0.07342
      1966 128496.73389    71.35147    60.62378     0.08411
      1967 128599.53127    71.35054    69.17591     0.07592
      1968 128702.41090    71.34962    66.27935     0.07843
      1969 128805.37283    71.34871    70.32733     0.07483
      1970 128908.41712    71.34782    74.10447     0.07163
      1971 129011.54386    71.34693    66.78876     0.07737
      1972 129114.75309    71.34605    74.68971     0.07062
      1973 129218.04490    71.34519    69.48896     0.07442
      1974 129321.41933    71.34433    76.08812     0.06914
      1975 129424.87647    71.34348    74.61674     0.07013
      1976 129528.41637    71.34264    69.26243     0.07441
      1977 129632.03910    71.34182    73.84992     0.07083
      1978 129735.74473    71.34100    67.80050     0.07563
      1979 129839.53333    71.34019    78.10559     0.06744
      1980 129943.40496    71.33939    71.54063     0.07203
      1981 130047.35968    71.33860    77.26118     0.06762
      1982 130151.39757    71.33782    72.51694     0.07097
      1983 130255.51869    71.33704    70.90576     0.07205
      1984 130359.72310    71.33628    72.55404     0.07060
      1985 130464.01088    71.33552    71.93873     0.07094
      1986 130568.38209    71.33477    71.25224     0.07126
      1987 130672.83679    71.33403    80.29457     0.06450
      1988 130777.37506    71.33330    72.84107     0.06927
      1989 130881.99696    71.33257    70.89508     0.07039
      1990 130986.70256    71.33185    70.12390     0.07070
      1991 131091.49192    71.33114    67.84852     0.07229
      1992 131196.36512    71.33044    69.86307     0.07050
      1993 131301.32221    71.32974    69.26012     0.07085
      1994 131406.36327    71.32905    70.36957     0.06985
      1995 131511.48836    71.32837    65.13808     0.07400
      1996 131616.69755    71.32769    72.69409     0.06782
      1997 131721.99090    71.32702    69.91518     0.06962
      1998 131827.36850    71.32635    74.98697     0.06557
      1999 131932.83039    71.32569    72.41212     0.06704
      2000 132038.37666    71.32503    73.63345     0.06592
      2001 132144.00736    71.32438    70.42485     0.06814
      2002 132249.72256    71.32374    70.48289     0.06816
      2003 132355.52234    71.32309    70.09545     0.06856
      2004 132461.40676    71.32246    74.21119     0.06553
      2005 132567.37589    71.32183    68.61394     0.06952
      2006 132673.42979    71.32120    73.85517     0.06546
      2007 132779.56853    71.32057    77.76371     0.06264
      2008 132885.79218    71.31995    71.25218     0.06679
      2009 132992.10082    71.31933    77.91013     0.06191
      2010 133098.49450    71.31872    72.95064     0.06482
      2011 133204.97329    71.31811    72.19827     0.06502
      2012 133311.53727    71.31750    64.60318     0.07064
      2013 133418.18650    71.31689    72.65054     0.06446
      2014 133524.92105    71.31628    73.35497     0.06371
      2015 133631.74099    71.55399    73.87815     0.06283
      2016 133738.64638    72.23635    74.15472     0.06196
      2017 133845.63730    72.95603    79.06847     0.05846
      2018 133952.71381    73.15059    74.37060     0.06107
      2019 134059.87598    73.23926    71.96540     0.06258
      2020 134167.12388    73.30872    72.37750     0.06224
      2021 134274.45758    73.37691    76.06347     0.05975
      2022 134381.87715    73.44762    73.53935     0.06115
      2023 134489.38265    73.52211    70.97573     0.06266
      2024 134596.97415    73.60068    64.65135     0.06713
      2025 134704.65173    73.68363    76.13476     0.05918
      2026 134812.41545    73.77129    67.81529     0.06458
      2027 134920.26539    73.86402    75.30932     0.05942
      2028 135028.20160    73.96221    76.11079     0.05873
      2029 135136.22416    74.06632    70.95640     0.06180
      2030 135244.33314    74.17680    64.58896     0.06619
      2031 135352.52861    74.29420    71.05167     0.06150
      2032 135460.81063    74.41910    70.93258     0.06156
      2033 135569.17928    74.55231    68.70888     0.06308
      2034 135677.63462    74.69443    70.09619     0.06223
      2035 135786.17673    74.84626    76.07287     0.05863
      2036 135894.80567    75.00869    73.07588     0.06075
      2037 136003.52151    75.18274    70.39013     0.06267
      2038 136112.32433    75.36955    75.36361     0.05936
      2039 136221.21419    76.04022    69.43733     0.06312
      2040 136330.19116    76.83399    67.29942     0.06455
      2041 136439.25532    77.23721    72.04732     0.06125
      2042 136548.40672    77.55663    71.31396     0.06186
      2043 136657.64545    77.87748    76.17172     0.05889
      2044 136766.97156    78.21941    71.53241     0.06197
      2045 136876.38514    78.58873    68.72276     0.06380
      2046 136985.88625    78.98968    77.97173     0.05740
      2047 137095.47496    79.42612    74.00099     0.05925
      2048 137205.15134    79.90248    76.16816     0.05742
      2049 137314.91546    80.42386    74.90583     0.05783
      2050 137424.76739    80.99676    73.73821     0.05832
      2051 137534.70720    81.62793    71.24830     0.05971
      2052 137644.73497    82.32553    73.85569     0.05795
      2053 137754.85076    83.09936    73.49914     0.05805
      2054 137865.05464    83.96114    73.40342     0.05801
      2055 137975.34668    84.92496    84.71567     0.05181
      2056 138085.72696    86.00780    76.48045     0.05615
      2057 138196.19554    87.23038    77.83719     0.05533
      2058 138306.75250    88.61813    78.01063     0.05514
      2059 138417.39790    90.20255    76.61887     0.05580
      2060 138528.13182    92.02315    79.05996     0.05431
      2061 138638.95432    94.13048    80.98751     0.05321
      2062 138749.86549    96.59164    77.97691     0.05473
      2063 138860.86538    99.50247    86.45939     0.05020
      2064 138971.95407   103.01685    85.49897     0.05044
      2065 139083.13163   107.41783    76.31918     0.05500
      2066 139194.39814   113.28117    94.03422     0.04651
      2067 139305.75366   121.81125    99.77994     0.04442
      2068 139417.19826   135.44250   101.27302     0.04403
      2069 139528.73202   158.73207   125.82470     0.03664
      2070 139640.35500   199.34955   161.36132     0.02940
      2071 139752.06729   268.57841   222.97755     0.02188
      2072 139863.86894   380.34721   355.45463     0.01412
      2073 139975.76004   547.80704   556.34685     0.00918
      2074 140087.74065   777.28701   816.73741     0.00631
      2075 140199.81084  1060.99791  1140.34488     0.00454
      2076 140311.97069  1371.11359  1522.22943     0.00341
      2077 140424.22026  1658.03529  1836.15112     0.00283
      2078 140536.55964  1857.06108  1988.12241     0.00261
      2079 140648.98889  1911.03749  2002.27379     0.00258
      2080 140761.50808  1803.45531  1836.05375     0.00281
      2081 140874.11728  1569.09852  1610.79546     0.00318
      2082 140986.81658  1270.08890  1264.84147     0.00403
      2083 141099.60603   966.49775  1033.95127     0.00489
      2084 141212.48572   700.75071   749.15881     0.00667
      2085 141325.45571   493.75178   544.03156     0.00905
      2086 141438.51607   347.94195   413.19540     0.01173
      2087 141551.66688   254.02199   327.47524     0.01456
      2088 141664.90822   198.15945   245.94103     0.01891
      2089 141778.24014   167.28542   219.87872     0.02085
      2090 141891.66273   151.70467   176.73756     0.02523
      2091 142005.17607   145.64610   165.06235     0.02666
      2092 142118.78021   146.87212   158.51987     0.02752
      2093 142232.47523   156.23006   154.22404     0.02810
      2094 142346.26121   177.47446   173.17699     0.02530
      2095 142460.13822   217.12606   218.56352     0.02047
      2096 142574.10633   283.73333   289.16593     0.01578
      2097 142688.16561   385.83511   401.31354     0.01158
      2098 142802.31615   528.36820   568.42108     0.00829
      2099 142916.55800   708.17052   781.91916     0.00608
      2100 143030.89125   910.06629  1027.91718     0.00466
      2101 143145.31596  1105.16531  1230.29810     0.00390
      2102 143259.83221  1253.43812  1357.94836     0.00354
      2103 143374.44008  1315.04681  1364.49133     0.00352
      2104 143489.13963  1270.91539  1336.12004     0.00359
      2105 143603.93094  1135.16314  1137.53601     0.00420
      2106 143718.81409   944.73158   976.79575     0.00487
      2107 143833.78914   739.95498   742.44967     0.00636
      2108 143948.85617   552.13661   578.53760     0.00809
      2109 144064.01525   399.26528   452.14893     0.01023
      2110 144179.26647   286.69045   331.62801     0.01369
      2111 144294.60988   210.67262   244.14210     0.01815
      2112 144410.04557   162.93562   191.40005     0.02256
      2113 144525.57360   134.51110   151.91457     0.02757
      2114 144641.19406   117.98745   134.08978     0.03058
      2115 144756.90702   108.22069   123.50255     0.03270
      2116 144872.71254   102.08517   107.83002     0.03660
      2117 144988.61071    97.87177   104.42192     0.03764
      2118 145104.60160    94.71818   102.72946     0.03817
      2119 145220.68528    92.20130    94.24497     0.04088
      2120 145336.86183    90.11264    89.55761     0.04246
      2121 145453.13132    88.34092    81.11647     0.04573
      2122 145569.49383    86.81788    80.37280     0.04585
      2123 145685.94942    85.49644    82.99202     0.04460
      2124 145802.49818    84.34143    75.84704     0.04790
      2125 145919.14018    83.32526    77.32942     0.04747
      2126 146035.87549    82.42604    75.23784     0.04880
      2127 146152.70419    81.62606    77.97903     0.04763
      2128 146269.62636    80.91087    79.06434     0.04710
      2129 146386.64206    80.26857    78.37810     0.04728
      2130 146503.75137    79.68931    84.36849     0.04437
      2131 146620.95437    79.16484    81.80570     0.04524
      2132 146738.25113    78.68825    71.95155     0.04972
      2133 146855.64174    78.25369    75.75837     0.04748
      2134 146973.12625    77.85619    71.27438     0.04947
      2135 147090.70475    77.49151    80.13312     0.04504
      2136 147208.37731    77.15604    74.28609     0.04764
      2137 147326.14402    76.84654    79.02227     0.04522
      2138 147444.00493    76.37267    72.12254     0.04817
      2139 147561.96013    74.92045    74.49427     0.04677
      2140 147680.00970    74.43175    67.92002     0.04998
      2141 147798.15371    74.20360    78.30361     0.04483
      2142 147916.39223    74.03232    73.61106     0.04703
      2143 148034.72535    73.88044    76.82793     0.04557
      2144 148153.15313    73.74056    68.03348     0.04998
      2145 148271.67565    73.61010    76.83664     0.04547
      2146 148390.29299    73.48820    72.76350     0.04716
      2147 148509.00523    73.37409    76.20366     0.04522
      2148 148627.81243    73.26708    70.57283     0.04763
      2149 148746.71468    73.16656    73.90636     0.04580
      2150 148865.71205    73.07198    78.43520     0.04365
      2151 148984.80462    72.98285    72.23043     0.04639
      2152 149103.99246    72.89871    73.02120     0.04604
      2153 149223.27566    72.81916    71.46235     0.04688
      2154 149342.65428    72.74388    78.18001     0.04392
      2155 149462.12840    72.67254    68.63492     0.04857
      2156 149581.69811    72.60481    71.74577     0.04712
      2157 149701.36346    72.54040    71.22180     0.04747
      2158 149821.12455    72.47907    76.52192     0.04497
      2159 149940.98145    72.42059    76.34938     0.04499
      2160 150060.93424    72.36476    71.00980     0.04743
      2161 150180.98299    72.31140    73.84911     0.04595
      2162 150301.12777    72.26032    64.99592     0.05042
      2163 150421.36868    72.19223    64.70137     0.05068
      2164 150541.70577    71.31661    68.94747     0.04860
      2165 150662.13913    71.03365    68.40723     0.04918
      2166 150782.66885    70.98068    69.01087     0.04904
      2167 150903.29498    70.96586    71.55437     0.04774
      2168 151024.01762    70.95758    71.40643     0.04782
      2169 151144.83683    70.95066    76.90899     0.04534
      2170 151265.75270    70.94362    71.27593     0.04837
      2171 151386.76530    70.93647    70.36729     0.04920
      2172 151507.87472    70.92921    78.37585     0.04545
      2173 151629.08101    70.92183    75.25919     0.04695
      2174 151750.38428    70.91433    71.11086     0.04890
      2175 151871.78459    70.90671    72.13945     0.04812
      2176 151993.28201    70.89897    66.94433     0.05067
      2177 152114.87664    70.89110    71.99993     0.04770
      2178 152236.56854    70.88312    59.15732     0.05495
      2179 152358.35780    70.87501    66.82955     0.05008
      2180 152480.24448    70.86677    71.89434     0.04729
      2181 152602.22868    70.85840    69.59946     0.04831
      2182 152724.31046    70.84990    66.88841     0.04960
      2183 152846.48991    70.84127    67.60056     0.04911
      2184 152968.76710    70.83251    67.79817     0.04897
      2185 153091.14212    70.82361    71.68216     0.04712
      2186 153213.61503    70.81458    69.46219     0.04844
      2187 153336.18592    70.80540    67.98704     0.04934
      2188 153458.85487    70.79609    69.61452     0.04858
      2189 153581.62195    70.78664    63.86158     0.05189
      2190 153704.48725    70.77704    78.41522     0.04440
      2191 153827.45084    70.76730    66.46103     0.05017
      2192 153950.51280    70.75742    65.51990     0.05044
      2193 154073.67321    70.74738    71.41958     0.04700
      2194 154196.93215    70.73720    66.72292     0.04916
      2195 154320.28970    70.72686    60.33414     0.05276
      2196 154443.74593    70.71637    69.27545     0.04775
      2197 154567.30092    70.70573    63.66225     0.05088
      2198 154690.95477    70.69493    65.81108     0.04966
      2199 154814.70753    70.68397    63.47703     0.05101
      2200 154938.55930    70.67285    68.22682     0.04840
      2201 155062.51014    70.66157    73.16068     0.04592
      2202 155186.56015    70.65013    64.56602     0.05035
      2203 155310.70940    70.63852    78.56577     0.04323
      2204 155434.95797    70.62674    74.39720     0.04481
      2205 155559.30593    70.61479    74.93107     0.04423
      2206 155683.75338    70.60267    66.56681     0.04796
      2207 155808.30038    70.59038    63.63388     0.04925
      2208 155932.94702    70.57792    68.37887     0.04658
      2209 156057.69338    70.56527    66.69676     0.04742
      2210 156182.53953    70.55245    73.81114     0.04392
      2211 156307.48556    70.53945    71.39541     0.04488
      2212 156432.53155    70.52627    73.13394     0.04391
      2213 156557.67758    70.51290    65.67621     0.04742
      2214 156682.92372    70.49934    62.58392     0.04894
      2215 156808.27006    70.48560    76.99042     0.04181
      2216 156933.71668    70.47166    66.38832     0.04666
      2217 157059.26365    70.45753    69.07944     0.04529
      2218 157184.91106    70.44321    71.60211     0.04403
      2219 157310.65899    70.42869    75.72836     0.04216
      2220 157436.50752    70.41397    61.89943     0.04895
      2221 157562.45672    70.39905    73.76774     0.04296
      2222 157688.50669    70.38393    63.76355     0.04781
      2223 157814.65749    70.36860    75.41254     0.04217
      2224 157940.90922    70.35307    68.92293     0.04511
      2225 158067.26195    70.33732    85.68492     0.03823
      2226 158193.71576    70.32136    69.98936     0.04468
      2227 158320.27073    70.30519    70.79304     0.04447
      2228 158446.92694    70.28881    75.37720     0.04260
      2229 158573.68449    70.27220    74.20414     0.04327
      2230 158700.54343    70.25537    72.40915     0.04430
      2231 158827.50387    70.23832    70.79238     0.04536
      2232 158954.56587    70.22105    77.55876     0.04261
      2233 159081.72952    70.20355    70.89175     0.04587
      2234 159208.99491    70.18581    60.21984     0.05196
      2235 159336.36210    70.16785    73.72680     0.04484
      2236 159463.83119    70.14965    68.24918     0.04765
      2237 159591.40226    70.13121    62.56366     0.05092
      2238 159719.07538    70.11254    65.53313     0.04929
      2239 159846.85064    70.09362    77.98545     0.04328
      2240 159974.72812    70.07446    64.20342     0.05017
      2241 160102.70790    70.05505    65.69648     0.04944
      2242 160230.79007    70.03539    65.88682     0.04933
      2243 160358.97470    70.01548    66.10025     0.04907
      2244 160487.26188    69.99532    70.81234     0.04651
      2245 160615.65169    69.97490    67.43714     0.04815
      2246 160744.14421    69.95422    70.95357     0.04640
      2247 160872.73953    69.93328    62.26800     0.05105
      2248 161001.43772    69.91207    74.88887     0.04471
      2249 161130.23887    69.89060    68.75941     0.04781
      2250 161259.14306    69.86885    69.05867     0.04795
      2251 161388.15038    69.84684    62.47438     0.05192
      2252 161517.26090    69.82455    73.97679     0.04608
      2253 161646.47470    69.80198    81.69676     0.04285
      2254 161775.79188    69.77913    69.30406     0.04851
      2255 161905.21252    69.75600    73.24050     0.04630
      2256 162034.73669    69.73259    66.00225     0.04964
      2257 162164.36448    69.70888    67.89662     0.04838
      2258 162294.09597    69.68488    75.00379     0.04500
      2259 162423.93125    69.66059    63.23504     0.05110
      2260 162553.87039    69.63600    64.53625     0.05071
      2261 162683.91349    69.61112    70.15081     0.04820
      2262 162814.06062    69.58593    70.95368     0.04836
      2263 162944.31187    69.56043    66.46015     0.05140
      2264 163074.66732    69.53462    69.62679     0.05027
      2265 163205.12705    69.50851    76.22736     0.04730
      2266 163335.69115    69.48208    75.23618     0.04787
      2267 163466.35970    69.45533    70.35466     0.05029
      2268 163597.13279    69.42826    72.56477     0.04911
      2269 163728.01050    69.40087    57.28370     0.05834
      2270 163858.99291    69.37315    68.10415     0.05155
      2271 163990.08010    69.34510    67.79425     0.05175
      2272 164121.27216    69.31672    59.24243     0.05705
      2273 164252.56918    69.28801    69.24412     0.05115
      2274 164383.97124    69.25895    71.35236     0.05028
      2275 164515.47841    69.22956    65.32764     0.05398
      2276 164647.09080    69.19981    61.46432     0.05679
      2277 164778.80847    69.16972    67.00897     0.05361
      2278 164910.63152    69.13928    68.54101     0.05280
      2279 165042.56002    69.10848    65.59577     0.05438
      2280 165174.59407    69.07733    77.81240     0.04761
      2281 165306.73375    69.04581    69.29765     0.05161
      2282 165438.97913    69.01393    72.61448     0.04961
      2283 165571.33032    68.98168    72.20242     0.04974
      2284 165703.78738    68.94906    70.94122     0.05046
      2285 165836.35041    68.91607    78.18670     0.04704
      2286 165969.01949    68.88270    71.86489     0.05015
      2287 166101.79471    68.84894    65.55075     0.05370
      2288 166234.67614    68.81480    73.13246     0.04959
      2289 166367.66388    68.78027    73.79394     0.04922
      2290 166500.75801    68.74535    68.04350     0.05221
      2291 166633.95862    68.71004    70.37183     0.05095
      2292 166767.26579    68.67432    74.76620     0.04872
      2293 166900.67960    68.63820    72.78539     0.04964
      2294 167034.20014    68.60168    80.28682     0.04598
      2295 167167.82750    68.56474    70.46361     0.05053
      2296 167301.56177    68.52739    71.48296     0.04983
      2297 167435.40301    68.48963    68.78996     0.05107
      2298 167569.35134    68.45144    75.12424     0.04784
      2299 167703.40682    68.41283    63.34719     0.05414
      2300 167837.56954    68.37379    70.45812     0.05023
      2301 167971.83960    68.33432    65.91828     0.05278
      2302 168106.21707    68.29441    80.52296     0.04572
      2303 168240.70204    68.25406    70.25016     0.05077
      2304 168375.29461    68.21327    74.23277     0.04893
      2305 168509.99484    68.17203    71.94451     0.05018
      2306 168644.80284    68.13034    67.24029     0.05286
      2307 168779.71868    68.08819    67.59843     0.05291
      2308 168914.74245    68.04558    67.79896     0.05310
      2309 169049.87425    68.00251    68.83546     0.05274
      2310 169185.11415    67.95897    64.47056     0.05551
      2311 169320.46224    67.91496    62.82032     0.05669
      2312 169455.91861    67.87047    77.80295     0.04843
      2313 169591.48334    67.82551    71.75190     0.05132
      2314 169727.15653    67.78006    74.40467     0.04978
      2315 169862.93826    67.73412    69.65528     0.05214
      2316 169998.82861    67.68768    74.06338     0.04997      
	

