
data_d6_MAPbI3_10K
_chemical_name_common           'd6-methylammonium lead iodide'
_chemical_formula_sum            'C H0.38 D5.62 I3 N Pb'
_chemical_formula_moiety         'I3 Pb, (C H0.19 D2.81), (H0.19 D2.81 N)'
_chemical_formula_weight         625.9
_exptl_crystal_colour            black
_exptl_crystal_description       powder
_publ_requested_journal          'Nature Communications'
_publ_section_title
; Structures and Phase Transitions of the Organic-Inorganic Hybrid 
 Perovskite Methyl Ammonium Lead Iodide
;
_publ_contact_author             'Pamela Whitfield'
_publ_contact_author_email       whitfieldps@ornl.gov
loop_
_publ_author_name        
'Whitfield, P.S.'
'Herron, N'
'Giuse, N'
'Page, K'
'Cheng, Y.Q.'
'Milas, I'
'Crawford, M.K.'
_diffrn_ambient_temperature      10
_cell_measurement_temperature    10
_pd_spec_mounting                '8mm diameter vanadium can'
_pd_spec_mount_mode              transmission
_pd_spec_shape                   cylinder
_cell_measurement_reflns_used    10209  
_diffrn_source                   'spallation source'
_diffrn_radiation_type           neutron
_diffrn_detector                 '6Li scintillation wavelength-shifting fibre'
_diffrn_measurement_device_type  'time-of-flight neutron powder diffractometer'
_pd_instr_location               'POWGEN diffractometer, SNS, ORNL (USA)'
_pd_meas_scan_method             tof
_pd_instr_dist_src/spec          60000
_pd_instr_dist_spec/detc         3000 #distance for 90deg detectors
# detector distances increase from 2.5 metres at backscattering to 
#  4.5 metres at forward scattering
_pd_meas_2theta_fixed            90 #data from all detectors focussed at 90deg 
_diffrn_measurement_method       'neutron time-event mode'
loop_
_diffrn_radiation_wavelength     
1.066
2.665
# 1 Angstrom bandwith with centre wavelengths of 1.066 and 2.665 Angstrom
loop_
_atom_type_symbol
_atom_type_scat_length_neutron
_atom_type_scat_source
C 0.6646 International_Tables_Vol_C
N 0.9360 International_Tables_Vol_C
Pb 0.9405 International_Tables_Vol_C
I 0.528 International_Tables_Vol_C
H -0.3739 International_Tables_Vol_C
D 0.6671 International_Tables_Vol_C
_diffrn_reflns_number            10209
_reflns_number_total             10209
_reflns_number_gt                ?
_reflns_threshold_expression     ?
_diffrn_reflns_theta_max         ?
_diffrn_reflns_limit_h_min       0
_diffrn_reflns_limit_h_max       23
_diffrn_reflns_limit_k_min       0
_diffrn_reflns_limit_k_max       33
_diffrn_reflns_limit_l_min       0
_diffrn_reflns_limit_l_max       23
_diffrn_standards_number         ?
_diffrn_standards_interval_count ?
_diffrn_standards_interval_time  ?
_diffrn_standards_decay_%        ?
_pd_proc_ls_special_details      
'co-refinement of 2 datasets with centre wavelengths 1.066 and 2.665A' 
_computing_structure_solution    'TOPAS'
_computing_data_collection       'SNS pyDAS'
_computing_cell_refinement       'TOPAS'
_computing_data_reduction        'Mantid'
_pd_proc_ls_profile_function     'back-to-back exponentials with pseudo-Voigt'
_pd_proc_ls_background_function  'Chebychev polynomial'
_refine_ls_structure_factor_coef Inet
_refine_ls_matrix_type           full
_refine_ls_weighting_scheme      'sigma'
_refine_ls_weighting_details
'w = 1/sigma\^2'
_refine_diff_density_max         ?
_refine_diff_density_min         ?
_refine_ls_number_reflns         10209
_pd_proc_ls_prof_wR_factor       0.0214
_refine_ls_wR_factor_ref         0.0214
_refine_ls_R_factor_gt           ?
_refine_ls_goodness_of_fit_all   2.71
_refine_ls_goodness_of_fit_ref   2.71
_refine_ls_hydrogen_treatment    refall
_refine_ls_number_parameters     104
_refine_ls_shift/su_max          0.73820

_cell_length_a                   8.81155(6)
_cell_length_b                   12.58714(9)
_cell_length_c                   8.55975(6)
_cell_angle_alpha                90
_cell_angle_beta                 90
_cell_angle_gamma                90
_cell_volume                     949.381(12)
_space_group_crystal_system      orthorhombic
_symmetry_space_group_name_H-M   'P n m a'
_symmetry_space_group_name_Hall  '-P 2ac 2n'
_symmetry_Int_Tables_number      62
_cell_formula_units_Z            4
_exptl_crystal_density_diffrn    4.353 
_exptl_absorpt_coefficient_mu    0
_exptl_absorpt_correction_type   cylinder
_exptl_absorpt_process_details  
'Lobanov, 6th EPDIC, Abstract.P12-16, Aug.22-25, 1998'
loop_
_symmetry_equiv_pos_as_xyz
'x, y, z '
'-x, y+1/2, -z '
'-x+1/2, -y, z+1/2 '
'-x+1/2, y+1/2, z+1/2 '
'x, -y+1/2, z '
'-x, -y, -z '
'x+1/2, -y+1/2, -z+1/2 '
'x+1/2, y, -z+1/2 '
loop_
_atom_site_label
_atom_site_type_symbol
_atom_site_fract_x
_atom_site_fract_y
_atom_site_fract_z
_atom_site_occupancy
_atom_site_symmetry_multiplicity
_atom_site_adp_type
_atom_site_U_iso_or_equiv
N1 N -0.06052(11) 0.25 0.02759(12) 1 4 Biso 0
C1 C 0.08317(15) 0.25 -0.06621(18) 1 4 Biso 0
D2C D 0.14545(15) 0.17936(13) -0.03842(17) 0.937(2) 8 Biso 0
D2C H 0.14545(15) 0.17936(13) -0.03842(17) 0.063(2) 8 Biso 0
D1C D 0.0526(2) 0.25 -0.1888(2) 0.937(2) 4 Biso 0
D1C H 0.0526(2) 0.25 -0.1888(2) 0.063(2) 4 Biso 0
D1N D -0.12457(15) 0.31573(12) 0.00158(18) 0.937(2) 8 Biso 0
D1N H -0.12457(15) 0.31573(12) 0.00158(18) 0.063(2) 8 Biso 0
D2N D -0.0385(3) 0.25 0.14478(19) 0.937(2) 4 Biso 0
D2N H -0.0385(3) 0.25 0.14478(19) 0.063(2) 4 Biso 0
Pb1 Pb 0.5 0 0 1.010(3) 4 Biso 0
I1 I 0.01553(19) 0.25 -0.55368(16) 1 4 Biso 0
I2 I 0.31279(12) 0.01664(8) -0.31642(12) 1 8 Biso 0
loop_
_atom_site_aniso_label
_atom_site_aniso_U_11
_atom_site_aniso_U_22
_atom_site_aniso_U_33
_atom_site_aniso_U_12
_atom_site_aniso_U_13
_atom_site_aniso_U_23
N1 0.0063(4) 0.0079(5) 0.0050(4) 0 0.0007(3) 0
C1 0.0037(6) 0.0077(6) 0.0117(7) 0 0.0039(5) 0
D2C 0.0201(7) 0.0213(7) 0.0346(9) 0.0150(5) 0.0087(6) 0.0075(6)
D2C 0.0201(7) 0.0213(7) 0.0346(9) 0.0150(5) 0.0087(6) 0.0075(6)
D1C 0.0208(10) 0.0400(13) 0.0067(8) 0 0.0048(7) 0
D1C 0.0208(10) 0.0400(13) 0.0067(8) 0 0.0048(7) 0
D1N 0.0210(7) 0.0233(8) 0.0284(7) 0.0156(6) 0.0032(7) 0.0062(7)
D1N 0.0210(7) 0.0233(8) 0.0284(7) 0.0156(6) 0.0032(7) 0.0062(7)
D2N 0.0313(13) 0.0306(12) 0.0027(7) 0 -0.0006(7) 0
D2N 0.0313(13) 0.0306(12) 0.0027(7) 0 -0.0006(7) 0
Pb1 0.0012(3) 0.0009(3) 0.0005(3) 0 0 0.0006(3)
I1 0.0077(7) 0.0004(5) 0.0029(6) 0 0.0000(5) 0
I2 0.0025(4) 0.0024(4) 0.0025(4) -0.0007(3) -0.0014(3) 0.0004(3)
loop_
_geom_bond_atom_site_label_1
_geom_bond_atom_site_label_2
_geom_bond_distance
_geom_bond_site_symmetry_1
_geom_bond_site_symmetry_2
N1 D2N 1.0218(19) 1_555 1_555
N1 D1N 1.0260(16) 1_555 1_555
N1 D1N 1.0260(16) 1_555 5_555
N1 C1 1.4992(17) 1_555 1_555
C1 D2C 1.0716(17) 1_555 1_555
C1 D2C 1.0716(17) 1_555 5_555
C1 D1C 1.083(2) 1_555 1_555
C1 N1 1.4992(17) 1_555 1_555
D2C C1 1.0716(17) 1_555 1_555
D2C I2 3.1357(19) 1_555 3_555
D1C C1 1.083(2) 1_555 1_555
D1C I1 3.140(2) 1_555 1_555
D1N N1 1.0260(16) 1_555 1_555
D2N N1 1.0218(19) 1_555 1_555
D2N I1 2.625(2) 1_555 1_556
Pb1 I2 3.1782(10) 1_555 1_555
Pb1 I2 3.1796(10) 1_555 8_554
Pb1 I1 3.1831(2) 1_555 7_554
I1 D2N 2.625(2) 1_555 1_554
I1 D1C 3.140(2) 1_555 1_555
I2 D1N 2.6960(19) 1_555 7_554
I2 D2C 3.1357(19) 1_555 3_554
loop_
_geom_angle_atom_site_label_1
_geom_angle_atom_site_label_2
_geom_angle_atom_site_label_3
_geom_angle
_geom_angle_site_symmetry_1
_geom_angle_site_symmetry_2
_geom_angle_site_symmetry_3
D1N N1 D2N 108.52(13) 1_555 1_555 1_555
D1N N1 D1N 107.49(18) 5_555 1_555 1_555
C1 N1 D1N 110.39(11) 1_555 1_555 5_555
C1 N1 D2N 111.41(15) 1_555 1_555 1_555
D2C C1 D2C 112.1(2) 5_555 1_555 1_555
D1C C1 D2C 110.03(13) 1_555 1_555 5_555
N1 C1 D1C 107.96(16) 1_555 1_555 1_555
N1 C1 D2C 108.28(11) 1_555 1_555 5_555
I2 D2C D1N 118.78(6) 3_555 1_555 1_555
I2 D2C D2N 88.57(5) 3_555 1_555 1_555
I2 D2C D1N 92.87(6) 3_555 1_555 5_555
I2 D2C N1 105.76(6) 3_555 1_555 1_555
I2 D2C D2C 141.88(3) 3_555 1_555 5_555
I2 D2C D1C 153.18(9) 3_555 1_555 1_555
I2 D2C C1 147.93(13) 3_555 1_555 1_555
I1 D1C D2N 158.35(10) 1_555 1_555 1_555
I1 D1C D1N 127.36(9) 1_555 1_555 1_555
I1 D1C N1 145.76(10) 1_555 1_555 1_555
I1 D1C D2C 140.64(8) 1_555 1_555 5_555
I1 D1C C1 171.55(17) 1_555 1_555 1_555
I2 D1N D2C 95.67(7) 7_454 1_555 5_555
I2 D1N D1C 90.22(6) 7_454 1_555 1_555
I2 D1N C1 109.01(7) 7_454 1_555 1_555
I2 D1N D2N 156.43(9) 7_454 1_555 1_555
I2 D1N D1N 141.50(4) 7_454 1_555 5_555
I2 D1N N1 150.61(13) 7_454 1_555 1_555
I1 D2N D2C 121.00(9) 1_556 1_555 5_555
I1 D2N C1 138.87(11) 1_556 1_555 1_555
I1 D2N D1N 143.90(9) 1_556 1_555 5_555
I1 D2N N1 179.48(18) 1_556 1_555 1_555
D1C D2N I1 153.87(11) 1_555 1_555 1_556
D1C D2N D1N 54.09(8) 1_555 1_555 5_555
I2 Pb1 I2 180.0000(13) 6_655 1_555 1_555
I2 Pb1 I2 88.601(10) 8_554 1_555 6_655
I2 Pb1 I2 91.399(10) 8_554 1_555 1_555
I1 Pb1 I2 91.78(3) 7_554 1_555 3_555
I1 Pb1 I2 88.22(3) 7_554 1_555 8_554
I1 Pb1 I2 85.40(3) 7_554 1_555 6_655
I1 Pb1 I2 94.60(3) 7_554 1_555 1_555
I1 Pb1 I1 180.0000(15) 3_555 1_555 7_554
D1C I1 D2N 175.52(9) 1_555 1_555 1_554
Pb1 I1 D1C 82.00(2) 3_554 1_555 1_555
Pb1 I1 D2N 97.71(3) 3_554 1_555 1_554
Pb1 I1 Pb1 162.67(5) 4_554 1_555 3_554
D2C I2 D1N 103.62(5) 3_554 1_555 7_554

data_d6_MAPbI3_10K_p_01
_diffrn_radiation_wavelength     1.066
# 1 Angstrom bandwith with centre wavelengths of 1.066 Angstrom
loop_
_pd_proc_point_id
_pd_meas_time_of_flight
_pd_proc_intensity_total
_pd_calc_intensity_total
_pd_proc_ls_weight
         1  8398.56438    53.03919    61.98692     5.49161
         2  8405.28323    55.02989    60.57331     5.59695
         3  8412.00746    56.88464    61.46843     5.54047
         4  8418.73706    58.40216    62.99477     5.44547
         5  8425.47205    59.35392    63.84250     5.39983
         6  8432.21243    59.79077    63.39757     5.43948
         7  8438.95820    60.06437    63.69864     5.42520
         8  8445.70937    60.28698    62.16328     5.53879
         9  8452.46593    60.34493    62.39542     5.53073
        10  8459.22791    60.39725    62.16153     5.55898
        11  8465.99529    60.40346    62.90274     5.52048
        12  8472.76809    60.31055    61.99204     5.59970
        13  8479.54630    60.22417    61.91849     5.61744
        14  8486.32994    60.25698    62.39457     5.59230
        15  8493.11900    60.44351    60.96694     5.70447
        16  8499.91350    60.74266    60.98632     5.71137
        17  8506.71343    61.06515    60.64391     5.74735
        18  8513.51880    61.48902    62.12063     5.65070
        19  8520.32961    61.97611    61.70789     5.69560
        20  8527.14588    62.13768    63.92350     5.55385
        21  8533.96759    62.03895    63.79818     5.58069
        22  8540.79477    61.88841    62.74377     5.67207
        23  8547.62740    61.58637    63.01063     5.66751
        24  8554.46550    61.36600    62.08820     5.74733
        25  8561.30908    61.44910    60.81044     5.85340
        26  8568.15812    61.92646    61.18834     5.83375
        27  8575.01265    62.53799    62.58598     5.74172
        28  8581.87266    63.05984    64.41343     5.62736
        29  8588.73816    63.49141    65.13202     5.59809
        30  8595.60915    63.99667    63.49287     5.73768
        31  8602.48564    64.57054    64.26950     5.70437
        32  8609.36763    64.95463    66.01679     5.60059
        33  8616.25512    64.88524    66.37906     5.59163
        34  8623.14812    64.64109    65.30786     5.68256
        35  8630.04664    64.45474    64.96774     5.72364
        36  8636.95068    64.25408    64.84745     5.74811
        37  8643.86024    64.19038    63.90194     5.83063
        38  8650.77533    64.10851    64.97427     5.76353
        39  8657.69595    64.00539    64.91102     5.77501
        40  8664.62211    63.75023    65.10063     5.76437
        41  8671.55380    63.12444    64.84029     5.78554
        42  8678.49105    62.66887    62.54335     5.95900
        43  8685.43384    62.53218    61.63551     6.03603
        44  8692.38219    62.35187    62.24820     6.00236
        45  8699.33609    62.08750    61.35686     6.09178
        46  8706.29556    62.28175    60.83098     6.15589
        47  8713.26060    62.96143    61.74762     6.10435
        48  8720.23121    63.64610    62.33806     6.07793
        49  8727.20739    64.04906    64.23866     5.95370
        50  8734.18916    64.20194    64.88404     5.92882
        51  8741.17651    64.00904    65.17786     5.92984
        52  8748.16945    63.59616    64.60904     5.98977
        53  8755.16798    63.11320    64.04347     6.04491
        54  8762.17212    62.77271    62.89920     6.14207
        55  8769.18186    62.77819    61.94216     6.22459
        56  8776.19720    63.13266    62.51737     6.18536
        57  8783.21816    63.64943    63.42102     6.12449
        58  8790.24473    64.07871    64.30937     6.06834
        59  8797.27693    64.30295    64.99334     6.02754
        60  8804.31475    64.48431    64.58215     6.06697
        61  8811.35820    64.55493    64.40093     6.08664
        62  8818.40729    64.56308    64.23565     6.10525
        63  8825.46202    64.55323    63.69832     6.15535
        64  8832.52239    64.88927    64.88579     6.07603
        65  8839.58840    65.54142    64.52669     6.11708
        66  8846.66007    65.97834    66.12921     6.01228
        67  8853.73740    66.06953    66.89860     5.97013
        68  8860.82039    66.26886    66.21468     6.03379
        69  8867.90905    66.47743    66.46605     6.02953
        70  8875.00338    66.25767    66.00056     6.07766
        71  8882.10338    66.20576    65.89036     6.09809
        72  8889.20906    66.29461    65.46774     6.14020
        73  8896.32043    66.44565    65.79393     6.12579
        74  8903.43748    66.47840    66.64922     6.07563
        75  8910.56023    66.11861    67.39032     6.04008
        76  8917.68868    65.77700    66.22288     6.14885
        77  8924.82283    65.44089    64.36917     6.31389
        78  8931.96269    65.17674    64.92846     6.28727
        79  8939.10826    65.10935    62.75506     6.47418
        80  8946.25955    64.91682    64.74642     6.32148
        81  8953.41656    64.54093    64.69673     6.33267
        82  8960.57929    64.16223    63.33527     6.45208
        83  8967.74775    63.90159    63.15694     6.48072
        84  8974.92195    63.68158    62.76856     6.52828
        85  8982.10189    63.58425    61.33305     6.66214
        86  8989.28757    63.81820    61.88122     6.62407
        87  8996.47900    64.60434    62.47512     6.58283
        88  9003.67618    65.92087    63.26070     6.52758
        89  9010.87912    66.86262    66.35318     6.29447
        90  9018.08783    66.88472    66.68624     6.28551
        91  9025.30230    66.64005    65.74459     6.37743
        92  9032.52254    66.61277    65.18500     6.43959
        93  9039.74856    66.88555    64.68062     6.49583
        94  9046.98036    66.85768    66.31373     6.37884
        95  9054.21794    66.21741    66.15578     6.40150
        96  9061.46132    65.39248    65.37436     6.47006
        97  9068.71048    64.84867    63.80514     6.60259
        98  9075.96545    64.41083    61.65916     6.79405
        99  9083.22623    64.29597    62.15451     6.76265
       100  9090.49281    64.83464    61.52856     6.83009
       101  9097.76520    65.53226    63.62587     6.66353
       102  9105.04341    65.62375    64.94457     6.57279
       103  9112.32745    65.70571    64.58989     6.62403
       104  9119.61731    66.07939    64.98365     6.61394
       105  9126.91300    66.32937    66.02796     6.55085
       106  9134.21453    66.20910    66.51320     6.53058
       107  9141.52191    65.59150    65.44020     6.63151
       108  9148.83512    65.06445    64.70387     6.70213
       109  9156.15419    64.87975    63.92497     6.77423
       110  9163.47911    65.10455    63.07151     6.85377
       111  9170.80990    65.14928    63.11021     6.86003
       112  9178.14655    65.02430    63.11506     6.87421
       113  9185.48906    65.00091    63.18980     6.88682
       114  9192.83745    65.05957    63.70070     6.86211
       115  9200.19172    65.07452    64.68991     6.79551
       116  9207.55188    65.17255    64.65976     6.81268
       117  9214.91792    65.39029    63.67725     6.91118
       118  9222.28985    64.96534    64.53884     6.84965
       119  9229.66769    64.28146    63.81020     6.92715
       120  9237.05142    64.01237    61.65049     7.13651
       121  9244.44106    64.10784    61.89945     7.12371
       122  9251.83661    64.46013    62.64440     7.06077
       123  9259.23808    64.82709    62.41059     7.08468
       124  9266.64547    65.33612    62.75895     7.05391
       125  9274.05879    65.90406    64.21376     6.92678
       126  9281.47804    66.48691    64.25343     6.92760
       127  9288.90322    66.81926    66.26753     6.76140
       128  9296.33434    66.84201    65.95827     6.79124
       129  9303.77141    66.52124    66.04211     6.78971
       130  9311.21443    66.10604    64.35909     6.94284
       131  9318.66340    65.66317    64.50433     6.94552
       132  9326.11833    65.53244    63.07914     7.08653
       133  9333.57922    65.90281    63.44815     7.06471
       134  9341.04609    66.42968    64.49155     6.98049
       135  9348.51892    66.85845    65.66178     6.88399
       136  9355.99774    67.19952    65.98306     6.85997
       137  9363.48254    67.57662    66.47518     6.82389
       138  9370.97332    67.89663    66.51877     6.82773
       139  9378.47010    68.08878    66.57638     6.82965
       140  9385.97288    68.49305    66.52390     6.83844
       141  9393.48166    68.63483    67.45741     6.76264
       142  9400.99644    68.25568    67.81555     6.73354
       143  9408.51724    67.67198    66.30380     6.85763
       144  9416.04405    67.21092    65.61730     6.91399
       145  9423.57689    66.90159    64.67725     6.99234
       146  9431.11575    67.06756    65.46012     6.92269
       147  9438.66064    67.44219    65.31929     6.93441
       148  9446.21157    67.89510    65.86890     6.88871
       149  9453.76854    68.15270    65.84185     6.89594
       150  9461.33155    68.18145    66.89736     6.81627
       151  9468.90062    68.13054    66.92834     6.82464
       152  9476.47574    67.77145    66.72774     6.85366
       153  9484.05692    67.27926    66.22918     6.90743
       154  9491.64417    67.30167    64.86286     7.03613
       155  9499.23748    67.73993    65.15865     7.02228
       156  9506.83687    67.98195    66.08147     6.95357
       157  9514.44234    68.69758    66.75479     6.90629
       158  9522.05389    69.84191    66.78643     6.91200
       159  9529.67154    70.94205    69.51343     6.69763
       160  9537.29527    71.05420    69.93442     6.67213
       161  9544.92511    70.30839    70.47759     6.63898
       162  9552.56105    70.08979    67.34062     6.90359
       163  9560.20310    70.43258    68.25506     6.84151
       164  9567.85126    69.96407    68.94933     6.79596
       165  9575.50554    68.42448    67.73972     6.90255
       166  9583.16595    67.15759    65.38873     7.10700
       167  9590.83248    66.66562    64.97602     7.14692
       168  9598.50515    66.20494    65.43313     7.11431
       169  9606.18395    65.27871    64.81706     7.18302
       170  9613.86890    64.52997    63.10230     7.36238
       171  9621.55999    64.64867    63.10576     7.38983
       172  9629.25724    65.86220    63.16003     7.40959
       173  9636.96065    67.96698    66.81451     7.09647
       174  9644.67022    69.26390    69.50070     6.88474
       175  9652.38595    69.69191    70.78408     6.79530
       176  9660.10786    69.67896    69.78217     6.88929
       177  9667.83595    69.49068    69.42215     6.93061
       178  9675.57022    68.79768    68.23646     7.03810
       179  9683.31067    67.64194    67.03363     7.14627
       180  9691.05732    66.48250    65.99339     7.24122
       181  9698.81017    65.35897    64.09353     7.41728
       182  9706.56921    65.08059    63.85729     7.44510
       183  9714.33447    65.76524    64.51491     7.39338
       184  9722.10594    66.61471    65.57983     7.30535
       185  9729.88362    66.81615    66.74785     7.20951
       186  9737.66753    66.68186    65.78112     7.30418
       187  9745.45766    66.71068    66.07684     7.28599
       188  9753.25403    68.03431    65.23670     7.37044
       189  9761.05663    70.81257    67.59767     7.17183
       190  9768.86548    71.80215    71.97781     6.82541
       191  9776.68057    70.10850    71.40761     6.88355
       192  9784.50191    68.46857    67.77598     7.19864
       193  9792.32952    68.16311    65.72187     7.39605
       194  9800.16338    69.28139    66.93874     7.30040
       195  9808.00351    71.25594    70.38926     7.01727
       196  9815.84991    72.53734    73.41982     6.78619
       197  9823.70259    73.02588    74.03562     6.74643
       198  9831.56155    72.48209    72.66948     6.85689
       199  9839.42680    71.98160    71.42137     6.96016
       200  9847.29835    72.03641    71.06127     6.99181
       201  9855.17618    72.23582    71.05058     6.99425
       202  9863.06033    71.94974    72.05636     6.91818
       203  9870.95077    71.72169    71.37785     6.98151
       204  9878.84753    72.77486    71.34403     6.99673
       205  9886.75061    74.13922    72.78629     6.89558
       206  9894.66001    73.98903    74.12840     6.80373
       207  9902.57574    72.83841    73.07385     6.89287
       208  9910.49780    72.26093    72.22595     6.96334
       209  9918.42620    71.70655    71.44669     7.02722
       210  9926.36094    70.36198    71.11161     7.05747
       211  9934.30203    68.68588    68.70700     7.26389
       212  9942.24947    67.73995    67.16187     7.40674
       213  9950.20327    68.00502    67.46719     7.39054
       214  9958.16343    68.80914    68.00367     7.35789
       215  9966.12996    68.66807    69.78359     7.21877
       216  9974.10287    68.11389    68.69597     7.32602
       217  9982.08215    67.60174    67.64724     7.42985
       218  9990.06782    67.24167    67.13401     7.48608
       219  9998.05987    67.08229    67.24061     7.48541
       220 10006.05832    67.22332    67.62683     7.46011
       221 10014.06316    67.76931    68.45172     7.39560
       222 10022.07441    68.86958    69.25324     7.33334
       223 10030.09207    70.73482    70.45040     7.23864
       224 10038.11615    72.68215    72.29859     7.09477
       225 10046.14664    74.66026    74.52454     6.92949
       226 10054.18356    75.13871    76.48667     6.79326
       227 10062.22691    74.40107    75.18791     6.90372
       228 10070.27669    74.44263    73.13532     7.07909
       229 10078.33291    75.22504    74.06309     7.02270
       230 10086.39557    75.79455    75.18938     6.95049
       231 10094.46469    74.97275    75.18691     6.96192
       232 10102.54026    72.76088    73.64753     7.09062
       233 10110.62229    71.01891    71.88170     7.24047
       234 10118.71079    70.83602    69.73891     7.43096
       235 10126.80576    71.68484    70.94585     7.33532
       236 10134.90721    72.53050    73.33142     7.14602
       237 10143.01513    73.27983    73.16085     7.16869
       238 10151.12954    74.41270    74.24933     7.09015
       239 10159.25045    74.85080    75.82435     6.97465
       240 10167.37785    73.82783    75.26360     7.02347
       241 10175.51175    71.32301    73.57130     7.16420
       242 10183.65216    68.48632    69.36402     7.53055
       243 10191.79908    66.50875    66.46577     7.80727
       244 10199.95252    65.86100    65.83519     7.87516
       245 10208.11248    67.33569    67.01003     7.76955
       246 10216.27897    69.14923    70.82969     7.43481
       247 10224.45200    69.76835    72.32700     7.32054
       248 10232.63156    70.57608    72.07161     7.35276
       249 10240.81766    71.27569    71.39579     7.41657
       250 10249.01032    71.04000    71.65543     7.39972
       251 10257.20952    69.53037    70.61263     7.49645
       252 10265.41529    68.16558    68.38249     7.70583
       253 10273.62762    67.36387    67.50624     7.79956
       254 10281.84653    66.56359    67.87252     7.77985
       255 10290.07200    66.06847    67.24129     7.85477
       256 10298.30406    67.10872    67.75634     7.81947
       257 10306.54270    68.64119    70.35657     7.59171
       258 10314.78794    69.24874    70.99895     7.54219
       259 10323.03977    70.04609    71.56367     7.49864
       260 10331.29820    71.25122    72.12109     7.45601
       261 10339.56324    72.39597    72.33552     7.44404
       262 10347.83489    72.64147    72.92113     7.40122
       263 10356.11316    71.48143    71.44459     7.53488
       264 10364.39805    69.89795    70.55226     7.62295
       265 10372.68957    69.30968    69.00415     7.77166
       266 10380.98772    69.76957    69.61239     7.72295
       267 10389.29251    70.38106    70.76336     7.62737
       268 10397.60394    70.68405    70.86779     7.62548
       269 10405.92203    70.12652    71.15369     7.60627
       270 10414.24676    71.20146    70.42012     7.67453
       271 10422.57816    73.17952    71.99100     7.53821
       272 10430.91622    73.07829    74.47929     7.33145
       273 10439.26096    71.81811    73.62896     7.40571
       274 10447.61237    71.63491    71.42265     7.60413
       275 10455.97046    71.45822    71.55338     7.60748
       276 10464.33523    70.32568    72.46604     7.54453
       277 10472.70670    68.76219    70.25200     7.75600
       278 10481.08487    67.63401    68.27679     7.95425
       279 10489.46973    69.25880    69.52308     7.84995
       280 10497.86131    71.12751    72.53849     7.59051
       281 10506.25960    70.25158    72.95009     7.56420
       282 10514.66461    68.25997    70.48636     7.79018
       283 10523.07634    66.94726    68.93513     7.93926
       284 10531.49480    66.53997    68.10913     8.02229
       285 10539.91999    66.86383    68.45839     7.99224
       286 10548.35193    66.59479    68.39372     8.00050
       287 10556.79061    66.42256    68.12263     8.02946
       288 10565.23604    66.77306    67.00533     8.14274
       289 10573.68823    66.83583    67.64645     8.08647
       290 10582.14718    66.61730    67.55201     8.10465
       291 10590.61290    65.90156    67.65420     8.10521
       292 10599.08539    64.45340    67.57739     8.12190
       293 10607.56466    63.12654    65.94789     8.29138
       294 10616.05071    62.80958    65.15226     8.37685
       295 10624.54355    63.53851    66.56478     8.23321
       296 10633.04319    64.43899    67.52967     8.13686
       297 10641.54962    66.61262    68.78126     8.01326
       298 10650.06286    69.77603    72.14010     7.70220
       299 10658.58291    71.05820    73.77353     7.56128
       300 10667.10978    71.93588    74.29034     7.52232
       301 10675.64347    74.07194    75.93110     7.39696
       302 10684.18398    76.60441    78.27385     7.22240
       303 10692.73133    78.20066    79.59829     7.13009
       304 10701.28551    76.88059    79.05106     7.17752
       305 10709.84654    74.52672    75.84300     7.43487
       306 10718.41442    73.20638    73.53290     7.63125
       307 10726.98915    72.42338    73.80953     7.61054
       308 10735.57074    72.85209    74.12637     7.58890
       309 10744.15920    73.61651    75.33379     7.49532
       310 10752.75453    73.59883    75.61317     7.48199
       311 10761.35673    74.08750    75.91443     7.46733
       312 10769.96581    74.30504    76.27555     7.44655
       313 10778.58179    74.68497    76.33908     7.44448
       314 10787.20465    72.52585    75.87811     7.47687
       315 10795.83442    71.24287    72.99558     7.71256
       316 10804.47108    73.63141    74.51445     7.57378
       317 10813.11466    76.69363    78.10994     7.27827
       318 10821.76515    76.94235    79.03552     7.20737
       319 10830.42256    75.60067    76.46251     7.41072
       320 10839.08690    73.71217    74.08711     7.60836
       321 10847.75817    72.04363    72.80591     7.71728
       322 10856.43638    71.11127    71.79448     7.80167
       323 10865.12153    69.33769    70.79916     7.88549
       324 10873.81362    67.81570    69.42317     8.01152
       325 10882.51268    68.70410    70.40129     7.92787
       326 10891.21869    71.27102    72.89781     7.71706
       327 10899.93166    72.19235    75.38183     7.52062
       328 10908.65161    72.79130    75.84663     7.49544
       329 10917.37853    74.55181    76.63981     7.43954
       330 10926.11243    75.50488    78.13838     7.32399
       331 10934.85332    75.26461    77.35163     7.38910
       332 10943.60120    75.19153    76.78079     7.43958
       333 10952.35608    74.47917    76.05253     7.50585
       334 10961.11797    72.42367    74.30799     7.65854
       335 10969.88686    71.25386    72.72314     7.79962
       336 10978.66277    71.26908    73.82021     7.70327
       337 10987.44570    71.60189    74.21684     7.66927
       338 10996.23566    72.91499    74.47574     7.64953
       339 11005.03265    73.83043    74.37831     7.66111
       340 11013.83667    73.87399    74.78567     7.63075
       341 11022.64774    74.08355    74.66993     7.64912
       342 11031.46586    74.93128    75.75593     7.57026
       343 11040.29103    73.52785    75.10719     7.63717
       344 11049.12327    72.33417    73.74601     7.76613
       345 11057.96257    71.52081    73.32812     7.81392
       346 11066.80894    71.85869    73.54040     7.80403
       347 11075.66238    73.22527    74.72925     7.70754
       348 11084.52291    73.15377    74.93105     7.69665
       349 11093.39053    72.89189    74.37938     7.75150
       350 11102.26524    72.85230    73.82112     7.80731
       351 11111.14706    72.30215    73.32327     7.85724
       352 11120.03597    70.98877    71.86933     7.99395
       353 11128.93200    70.41305    71.17847     8.06221
       354 11137.83515    69.39368    71.25087     8.05865
       355 11146.74542    68.65064    70.64491     8.11984
       356 11155.66281    69.79129    71.94149     8.00387
       357 11164.58734    71.48637    74.40912     7.78708
       358 11173.51901    70.23595    73.26352     7.88879
       359 11182.45783    67.58691    69.65686     8.22290
       360 11191.40379    66.86250    69.04168     8.28144
       361 11200.35692    69.25449    71.14926     8.07982
       362 11209.31720    76.49929    78.68824     7.43209
       363 11218.28466    81.06435    82.60345     7.13494
       364 11227.25928    79.75925    80.65709     7.28170
       365 11236.24109    76.85371    77.19989     7.55986
       366 11245.23008    73.79682    74.35515     7.80704
       367 11254.22627    72.65144    72.93365     7.93947
       368 11263.22965    72.96487    73.87600     7.86094
       369 11272.24023    73.51801    74.63385     7.79913
       370 11281.25803    72.63704    73.78040     7.87729
       371 11290.28303    72.42874    72.98375     7.95103
       372 11299.31526    71.91027    73.18359     7.93603
       373 11308.35471    70.77295    71.40116     8.10259
       374 11317.40139    71.14301    71.59763     8.08943
       375 11326.45532    72.45604    73.77780     7.89986
       376 11335.51648    74.84865    76.86314     7.64571
       377 11344.58489    76.22186    78.24408     7.54216
       378 11353.66056    74.33635    76.27403     7.71010
       379 11362.74349    72.52925    73.11456     7.98858
       380 11371.83368    73.19430    73.10354     7.99261
       381 11380.93115    74.72566    75.14470     7.81761
       382 11390.03590    77.76308    77.38757     7.63661
       383 11399.14792    78.43194    79.32270     7.48962
       384 11408.26724    75.58623    76.68654     7.71469
       385 11417.39386    74.21681    74.18154     7.93978
       386 11426.52777    76.34500    75.72660     7.81220
       387 11435.66899    78.36897    78.55887     7.58502
       388 11444.81753    79.94558    80.89380     7.41199
       389 11453.97338    80.44578    81.61492     7.36853
       390 11463.13656    77.10542    78.38394     7.63513
       391 11472.30707    75.63103    76.46682     7.80425
       392 11481.48492    76.20305    77.63701     7.71071
       393 11490.67010    77.18562    78.28575     7.65852
       394 11499.86264    78.47849    79.34901     7.57060
       395 11509.06253    79.13858    80.45030     7.48276
       396 11518.26978    79.63893    79.48526     7.56354
       397 11527.48440    79.43947    79.66027     7.55799
       398 11536.70638    76.08606    77.18443     7.76980
       399 11545.93575    74.05290    73.64641     8.08620
       400 11555.17250    73.32556    73.38789     8.11295
       401 11564.41664    72.42609    72.17267     8.22817
       402 11573.66817    71.09892    71.44904     8.30077
       403 11582.92710    71.20935    71.61380     8.29220
       404 11592.19345    71.91066    72.85533     8.18190
       405 11601.46720    71.84868    71.88202     8.27594
       406 11610.74837    71.77653    71.67103     8.29800
       407 11620.03697    70.31010    70.28753     8.44008
       408 11629.33300    68.06538    69.20492     8.56126
       409 11638.63647    67.66993    68.69288     8.62838
       410 11647.94738    70.73915    72.13671     8.30013
       411 11657.26574    73.62882    74.33369     8.10605
       412 11666.59155    72.00763    74.32399     8.11249
       413 11675.92482    71.14633    72.91007     8.24224
       414 11685.26556    72.16868    73.21791     8.20630
       415 11694.61377    72.91008    74.56867     8.07428
       416 11703.96946    72.18641    73.61455     8.15638
       417 11713.33264    71.09498    72.43215     8.26531
       418 11722.70331    70.45944    70.46188     8.45608
       419 11732.08147    73.18041    71.96949     8.31336
       420 11741.46713    76.01848    74.04941     8.12693
       421 11750.86031    76.28062    75.47627     8.00728
       422 11760.26100    76.93123    77.31549     7.85481
       423 11769.66920    72.56580    74.55961     8.10009
       424 11779.08494    67.95606    67.71984     8.76988
       425 11788.50821    66.72377    64.84016     9.08606
       426 11797.93901    67.89622    66.78481     8.87189
       427 11807.37737    68.68425    68.47307     8.69677
       428 11816.82327    69.26162    69.27043     8.62235
       429 11826.27673    69.52563    70.09899     8.54931
       430 11835.73775    68.44989    68.44533     8.73119
       431 11845.20634    67.36014    68.38883     8.74986
       432 11854.68250    66.99016    68.01876     8.79790
       433 11864.16625    68.76350    69.68637     8.63213
       434 11873.65758    71.12236    70.95238     8.51257
       435 11883.15651    70.68919    70.56114     8.55980
       436 11892.66303    69.88417    69.57693     8.66737
       437 11902.17716    73.49108    72.41379     8.39312
       438 11911.69891    77.59231    77.26159     7.95913
       439 11921.22826    79.06423    78.09790     7.89295
       440 11930.76525    79.24177    77.75977     7.92610
       441 11940.30986    78.62156    77.52657     7.95101
       442 11949.86211    76.38925    75.76081     8.11283
       443 11959.42200    73.67704    72.70012     8.40523
       444 11968.98953    71.21030    70.76631     8.60454
       445 11978.56473    70.48522    69.05630     8.78698
       446 11988.14758    70.32381    68.37463     8.86391
       447 11997.73810    69.47831    68.44918     8.86186
       448 12007.33629    68.92329    67.53582     8.96904
       449 12016.94216    68.41627    67.23203     9.01487
       450 12026.55571    68.97306    68.93124     8.84511
       451 12036.17695    71.24908    70.51028     8.69111
       452 12045.80590    73.17669    72.97202     8.45566
       453 12055.44254    72.94990    72.39940     8.51823
       454 12065.08689    72.65034    71.96341     8.56952
       455 12074.73896    73.71294    73.60648     8.42085
       456 12084.39875    73.62016    74.42871     8.35458
       457 12094.06627    71.77333    71.76955     8.62181
       458 12103.74153    68.63793    68.94468     8.92332
       459 12113.42452    67.28444    66.29135     9.22451
       460 12123.11526    67.13396    65.68062     9.30221
       461 12132.81375    67.38233    65.67530     9.30926
       462 12142.52000    68.43063    67.50197     9.11018
       463 12152.23402    67.72007    67.31803     9.14072
       464 12161.95581    67.44477    67.07240     9.18288
       465 12171.68537    67.44409    67.62569     9.13541
       466 12181.42272    69.64972    69.50360     8.94014
       467 12191.16786    74.67879    72.77388     8.60962
       468 12200.92079    79.11882    77.38302     8.17853
       469 12210.68153    78.93001    78.29762     8.09522
       470 12220.45007    74.75271    74.46188     8.43613
       471 12230.22643    72.46415    71.07066     8.75918
       472 12240.01061    70.99196    70.48205     8.81310
       473 12249.80262    72.33209    70.80654     8.77896
       474 12259.60247    73.20626    72.02832     8.65969
       475 12269.41015    72.40708    71.50750     8.71558
       476 12279.22568    71.06691    70.51964     8.81737
       477 12289.04906    68.96342    67.96680     9.08936
       478 12298.88030    66.99994    66.87704     9.21443
       479 12308.71940    64.98167    64.67745     9.47543
       480 12318.56637    67.12366    65.88382     9.34093
       481 12328.42123    71.21719    70.43566     8.84725
       482 12338.28397    71.44088    71.84654     8.70355
       483 12348.15459    71.83659    70.99806     8.78695
       484 12358.03312    72.12094    71.19463     8.76216
       485 12367.91954    70.75658    69.69815     8.91195
       486 12377.81388    69.71893    68.84267     8.99882
       487 12387.71613    69.10999    68.41707     9.04387
       488 12397.62630    66.90503    66.44276     9.26486
       489 12407.54440    66.22733    64.81580     9.45532
       490 12417.47044    66.88068    65.99419     9.31608
       491 12427.40441    68.01289    66.98344     9.19949
       492 12437.34634    70.91163    70.08109     8.85957
       493 12447.29622    72.64008    73.09930     8.55255
       494 12457.25405    72.80530    72.66833     8.59389
       495 12467.21986    74.99441    73.55706     8.51003
       496 12477.19363    75.69488    75.57155     8.32329
       497 12487.17539    71.80290    72.81944     8.58434
       498 12497.16513    68.45119    67.82583     9.10082
       499 12507.16286    67.73200    66.90466     9.20251
       500 12517.16859    68.10137    66.22707     9.28219
       501 12527.18232    70.14289    68.38310     9.05033
       502 12537.20407    72.80592    72.03817     8.68097
       503 12547.23383    72.55315    71.58959     8.73725
       504 12557.27162    69.96819    69.37726     8.97732
       505 12567.31744    68.56358    67.26104     9.21819
       506 12577.37129    68.50621    67.34886     9.21273
       507 12587.43319    67.71199    67.05123     9.24661
       508 12597.50314    67.84249    67.05492     9.24600
       509 12607.58114    70.88494    69.06032     9.02595
       510 12617.66720    74.18696    72.17549     8.70565
       511 12627.76134    75.02933    73.33101     8.59482
       512 12637.86355    74.21642    73.33169     8.59753
       513 12647.97384    75.58969    74.49492     8.48870
       514 12658.09222    74.99814    74.37819     8.50496
       515 12668.21869    71.20482    70.82110     8.86720
       516 12678.35326    70.46945    68.40176     9.13905
       517 12688.49595    73.09954    70.44518     8.93472
       518 12698.64674    72.29791    71.29374     8.85902
       519 12708.80566    69.02853    68.24372     9.19596
       520 12718.97271    66.80595    66.08001     9.45164
       521 12729.14788    67.22493    66.43367     9.41879
       522 12739.33120    68.85634    68.44977     9.19850
       523 12749.52267    69.62074    69.41409     9.10042
       524 12759.72228    68.56286    69.13932     9.13611
       525 12769.93006    67.86632    66.65237     9.41894
       526 12780.14601    68.50825    66.59506     9.42831
       527 12790.37012    67.81302    66.48734     9.44519
       528 12800.60242    66.22183    66.00390     9.50836
       529 12810.84290    66.55573    65.98964     9.51789
       530 12821.09158    67.05627    65.94040     9.53484
       531 12831.34845    66.59752    65.77316     9.56890
       532 12841.61353    64.24818    63.55957     9.85667
       533 12851.88682    63.46418    62.17016    10.05815
       534 12862.16833    64.42094    63.13104     9.96075
       535 12872.45806    64.59601    64.70117     9.78957
       536 12882.75603    64.78830    64.13046     9.88145
       537 12893.06223    67.93520    65.86854     9.67853
       538 12903.37668    70.99928    69.00705     9.31706
       539 12913.69939    69.64189    69.76109     9.23174
       540 12924.03034    67.63456    67.97332     9.42918
       541 12934.36957    69.61773    68.92684     9.32067
       542 12944.71706    73.84422    71.88560     9.00239
       543 12955.07284    74.61004    73.90139     8.79824
       544 12965.43690    74.72458    73.61158     8.82780
       545 12975.80925    72.24664    72.21613     8.96879
       546 12986.18989    68.89616    67.43971     9.48577
       547 12996.57885    67.45698    65.59372     9.69925
       548 13006.97611    66.92361    65.00136     9.77160
       549 13017.38169    64.34512    63.77737     9.93045
       550 13027.79559    64.29966    64.63264     9.83581
       551 13038.21783    68.51133    66.61243     9.60873
       552 13048.64841    73.73192    72.42496     8.97603
       553 13059.08732    76.09074    75.21150     8.70005
       554 13069.53459    77.05352    75.69840     8.65231
       555 13079.99022    77.24751    76.53773     8.57062
       556 13090.45421    77.54041    76.95907     8.52920
       557 13100.92658    77.01603    75.89088     8.63014
       558 13111.40732    72.80900    73.20248     8.89865
       559 13121.89644    68.71169    69.26862     9.32176
       560 13132.39396    69.46727    68.69638     9.39019
       561 13142.89988    74.82497    73.09629     8.92184
       562 13153.41420    77.74228    76.47075     8.59349
       563 13163.93693    74.49195    75.20858     8.71636
       564 13174.46808    70.92920    71.17768     9.13025
       565 13185.00765    71.15613    70.92298     9.16401
       566 13195.55566    74.79780    73.59267     8.89166
       567 13206.11210    80.74305    79.50153     8.33377
       568 13216.67699    85.36362    82.96533     8.03508
       569 13227.25033    84.31018    82.16183     8.09825
       570 13237.83213    80.05263    78.58226     8.40676
       571 13248.42240    77.54071    75.28006     8.71543
       572 13259.02114    77.06754    74.22164     8.82360
       573 13269.62835    72.45391    70.81017     9.18337
       574 13280.24406    68.81812    68.31022     9.47309
       575 13290.86825    68.71607    68.64493     9.45116
       576 13301.50095    70.26672    69.34565     9.38879
       577 13312.14215    71.35605    70.80700     9.24247
       578 13322.79186    67.91867    67.79224     9.59225
       579 13333.45010    65.71577    65.36653     9.89211
       580 13344.11686    66.31894    66.54895     9.75052
       581 13354.79215    70.30943    69.49027     9.40721
       582 13365.47598    74.47392    74.80219     8.84416
       583 13376.16836    75.07896    75.46632     8.77093
       584 13386.86930    75.40550    75.11265     8.79491
       585 13397.57879    72.90594    72.86929     9.00931
       586 13408.29686    68.72596    68.34915     9.49232
       587 13419.02349    69.31407    67.47929     9.59859
       588 13429.75871    73.74316    71.14833     9.20510
       589 13440.50252    76.07919    75.38309     8.79007
       590 13451.25492    75.53469    74.96813     8.84580
       591 13462.01593    72.20187    72.23119     9.13929
       592 13472.78554    71.15829    69.98453     9.39666
       593 13483.56377    73.10566    70.69141     9.33195
       594 13494.35062    75.19399    72.71414     9.12483
       595 13505.14610    76.96454    74.63728     8.93447
       596 13515.95022    74.94812    73.87796     9.01490
       597 13526.76298    72.08473    71.63418     9.25109
       598 13537.58439    72.83858    71.59845     9.25764
       599 13548.41445    72.13420    70.86429     9.34236
       600 13559.25318    68.28910    67.80975     9.69664
       601 13570.10059    65.49284    64.94539    10.05789
       602 13580.95667    67.62622    65.94176     9.94836
       603 13591.82143    69.62818    69.10417     9.58594
       604 13602.69489    70.76692    70.34592     9.45442
       605 13613.57705    74.81181    74.47827     9.02325
       606 13624.46791    78.73854    79.72338     8.53098
       607 13635.36748    84.49040    83.27059     8.23335
       608 13646.27578    84.56287    83.52440     8.22522
       609 13657.19280    80.21006    80.68020     8.48112
       610 13668.11855    79.46398    78.83090     8.65443
       611 13679.05305    80.09817    80.18470     8.53114
       612 13689.99629    78.26920    78.24945     8.70439
       613 13700.94829    73.80328    74.12209     9.10351
       614 13711.90904    68.24976    68.90092     9.66859
       615 13722.87857    66.69183    65.67123    10.05529
       616 13733.85687    68.04046    65.71554    10.05150
       617 13744.84396    68.69067    67.00979     9.89653
       618 13755.83983    69.20103    67.53213     9.83707
       619 13766.84451    70.03066    69.37497     9.62331
       620 13777.85798    70.45502    70.17288     9.53657
       621 13788.88027    74.20804    72.93755     9.24365
       622 13799.91137    81.22538    78.60540     8.69099
       623 13810.95130    82.60767    80.59217     8.51703
       624 13822.00006    79.99390    79.28850     8.64155
       625 13833.05766    77.68196    76.70214     8.89313
       626 13844.12411    78.39565    77.00321     8.87501
       627 13855.19941    80.76118    79.30518     8.67021
       628 13866.28357    83.51759    82.17671     8.42323
       629 13877.37659    79.82203    79.04270     8.71203
       630 13888.47850    72.75336    72.90320     9.32875
       631 13899.58928    69.78824    68.48862     9.82862
       632 13910.70895    73.84443    72.12084     9.41985
       633 13921.83752    78.95128    77.49946     8.87004
       634 13932.97499    81.30064    81.64199     8.48712
       635 13944.12137    82.33312    82.67384     8.39774
       636 13955.27666    81.80596    82.37487     8.42916
       637 13966.44089    76.96694    78.03854     8.83244
       638 13977.61404    72.42379    73.45266     9.30503
       639 13988.79613    72.23480    71.73818     9.50773
       640 13999.98717    72.64231    71.90964     9.50849
       641 14011.18716    72.15690    72.18710     9.49407
       642 14022.39611    74.99486    74.32840     9.27696
       643 14033.61402    81.48026    81.72279     8.57295
       644 14044.84091    87.00977    86.75499     8.15283
       645 14056.07679    90.83837    89.81965     7.91843
       646 14067.32165    97.56376    94.85663     7.56002
       647 14078.57551    97.65544    97.52703     7.38552
       648 14089.83837    88.70933    87.94875     8.07744
       649 14101.11024    79.69239    78.17522     8.92687
       650 14112.39113    74.19480    73.07405     9.44368
       651 14123.68104    69.71058    69.39421     9.85470
       652 14134.97998    69.05470    68.82674     9.92314
       653 14146.28797    71.59185    71.24985     9.65036
       654 14157.60500    76.91040    75.56284     9.19746
       655 14168.93108    83.69237    81.80865     8.60995
       656 14180.26623    85.26650    84.61515     8.37190
       657 14191.61044    81.39631    81.92901     8.60813
       658 14202.96373    78.74351    79.73431     8.81051
       659 14214.32610    78.63256    78.43989     8.93420
       660 14225.69756    77.33953    77.43947     9.03180
       661 14237.07812    73.93226    73.84957     9.40059
       662 14248.46778    71.40932    71.70677     9.64177
       663 14259.86655    71.93835    71.25831     9.70304
       664 14271.27445    69.89785    70.29072     9.82111
       665 14282.69147    67.04334    67.52358    10.15223
       666 14294.11762    65.81728    65.86151    10.35712
       667 14305.55291    65.07309    64.87040    10.48357
       668 14316.99736    64.96075    64.78980    10.49724
       669 14328.45095    67.32475    66.99084    10.22034
       670 14339.91372    71.40290    71.14691     9.73214
       671 14351.38565    74.00474    74.18433     9.40708
       672 14362.86675    73.49309    74.01778     9.43378
       673 14374.35705    72.93265    72.55192     9.60260
       674 14385.85653    72.06460    71.65871     9.71196
       675 14397.36522    74.78002    73.73616     9.49165
       676 14408.88311    81.52657    80.42061     8.82950
       677 14420.41022    84.30581    82.90753     8.60536
       678 14431.94655    82.80593    82.55854     8.63433
       679 14443.49210    79.77498    78.89217     8.96865
       680 14455.04690    77.77373    76.18032     9.23599
       681 14466.61093    73.80199    73.67920     9.50354
       682 14478.18422    70.47772    70.32455     9.88472
       683 14489.76677    70.63669    70.40573     9.87755
       684 14501.35858    73.25636    72.49542     9.63914
       685 14512.95967    79.07113    78.65998     9.00364
       686 14524.57004    85.03936    84.60156     8.46953
       687 14536.18969    85.54424    84.83816     8.45457
       688 14547.81865    82.11545    82.74435     8.64366
       689 14559.45690    77.13657    78.03658     9.09130
       690 14571.10447    77.48374    77.01003     9.20714
       691 14582.76135    83.53591    83.00650     8.65958
       692 14594.42756    82.53554    82.79108     8.69294
       693 14606.10310    77.31696    77.10841     9.24101
       694 14617.78798    73.96056    72.99725     9.68174
       695 14629.48221    73.25059    71.98470     9.80200
       696 14641.18580    71.53395    71.31720     9.88112
       697 14652.89875    70.72800    71.21716     9.89224
       698 14664.62107    75.72240    75.55314     9.41878
       699 14676.35276    81.27748    80.90390     8.89669
       700 14688.09385    78.05047    79.48154     9.03818
       701 14699.84432    70.98884    72.69434     9.74816
       702 14711.60420    67.89897    67.92664    10.31949
       703 14723.37348    66.81804    66.41581    10.52010
       704 14735.15218    67.25508    67.51742    10.38728
       705 14746.94030    73.10698    71.61409     9.90167
       706 14758.73785    77.03831    76.49234     9.37828
       707 14770.54484    75.31824    76.41833     9.38949
       708 14782.36128    74.12104    74.05200     9.64278
       709 14794.18717    78.50010    77.10674     9.32716
       710 14806.02252    83.42366    82.76643     8.79145
       711 14817.86734    79.11516    80.44883     9.01015
       712 14829.72163    75.35607    76.17858     9.43721
       713 14841.58541    78.97862    78.59646     9.19655
       714 14853.45868    84.64400    83.83657     8.71315
       715 14865.34144    85.16592    85.58154     8.56949
       716 14877.23372    82.01167    83.99468     8.71711
       717 14889.13550    76.92387    78.82963     9.20961
       718 14901.04681    75.45276    76.02181     9.50432
       719 14912.96765    77.72305    78.24791     9.28263
       720 14924.89802    80.84841    81.58902     8.96338
       721 14936.83794    80.34693    80.81876     9.03588
       722 14948.78741    76.91975    78.18864     9.28989
       723 14960.74644    75.37924    75.69181     9.54304
       724 14972.71504    73.85848    74.43754     9.67653
       725 14984.69321    72.74664    72.68897     9.87421
       726 14996.68097    71.93146    73.41027     9.80318
       727 15008.67831    71.19971    72.62778     9.90249
       728 15020.68525    74.33068    75.84464     9.56329
       729 15032.70180    76.92201    79.04743     9.24879
       730 15044.72796    74.06450    75.23206     9.65202
       731 15056.76374    71.71489    72.39372     9.97588
       732 15068.80916    73.03004    72.61723     9.95679
       733 15080.86420    73.83070    73.34793     9.87774
       734 15092.92889    70.59613    71.96988    10.03814
       735 15105.00324    68.84071    70.27429    10.24432
       736 15117.08724    72.37597    72.94665     9.94164
       737 15129.18091    79.37696    78.69665     9.34009
       738 15141.28425    84.89088    84.37658     8.81316
       739 15153.39728    85.88752    86.12277     8.66748
       740 15165.52000    85.06030    84.75808     8.79326
       741 15177.65242    83.30568    83.25509     8.93585
       742 15189.79454    80.88299    80.46857     9.20839
       743 15201.94637    81.78867    81.29290     9.14245
       744 15214.10793    82.45455    82.62607     9.02988
       745 15226.27922    81.44910    83.07168     8.99892
       746 15238.46024    81.25388    82.97482     9.01500
       747 15250.65101    82.41942    82.87946     9.02749
       748 15262.85153    80.70798    82.08764     9.10106
       749 15275.06181    77.02920    78.34388     9.46580
       750 15287.28186    76.50172    77.81516     9.52220
       751 15299.51169    77.30322    79.19106     9.38803
       752 15311.75129    81.52957    82.77221     9.05186
       753 15324.00070    88.08160    88.61983     8.54996
       754 15336.25990    86.70807    87.45908     8.65624
       755 15348.52890    82.85272    83.58796     9.00693
       756 15360.80773    82.08124    82.30847     9.13458
       757 15373.09637    79.44850    81.86070     9.18371
       758 15385.39485    75.60039    78.94011     9.47583
       759 15397.70317    73.03238    74.96235     9.90033
       760 15410.02133    73.08359    73.91610    10.01855
       761 15422.34935    74.78236    74.45099     9.95807
       762 15434.68723    73.90300    74.29357     9.97197
       763 15447.03498    72.13760    73.02187    10.11022
       764 15459.39260    71.14376    72.81826    10.12846
       765 15471.76012    70.01469    71.78805    10.24609
       766 15484.13753    68.90950    70.55468    10.39314
       767 15496.52484    70.94804    71.59575    10.26927
       768 15508.92206    75.40475    75.61957     9.81763
       769 15521.32919    79.31609    80.35065     9.33829
       770 15533.74626    79.51283    81.37066     9.24693
       771 15546.17325    77.09675    78.95010     9.48992
       772 15558.61019    77.04570    77.50453     9.64096
       773 15571.05708    78.89658    80.39496     9.34959
       774 15583.51393    80.84443    81.30925     9.26059
       775 15595.98074    79.49879    80.86054     9.30325
       776 15608.45752    75.41727    77.49755     9.64203
       777 15620.94429    75.91701    77.18205     9.67727
       778 15633.44104    84.40767    83.87215     9.02420
       779 15645.94780    88.40353    88.00732     8.66498
       780 15658.46455    83.60832    84.41725     8.98393
       781 15670.99133    81.16266    80.99705     9.31243
       782 15683.52812    84.28361    83.64157     9.06994
       783 15696.07494    87.12757    88.19343     8.67443
       784 15708.63180    87.96282    89.47273     8.57144
       785 15721.19871    88.12026    88.12548     8.68587
       786 15733.77567    91.17508    91.13565     8.44056
       787 15746.36269    93.76917    94.69855     8.16895
       788 15758.95978    88.35148    90.67869     8.48542
       789 15771.56694    81.27776    83.36631     9.12422
       790 15784.18420    78.50103    78.83353     9.57370
       791 15796.81154    77.63965    78.24438     9.64183
       792 15809.44899    75.41850    76.51028     9.83347
       793 15822.09655    71.77998    73.94029    10.12608
       794 15834.75423    72.02792    74.91164    10.02248
       795 15847.42203    75.00304    76.13680     9.89259
       796 15860.09997    75.71995    77.34660     9.76651
       797 15872.78805    75.34072    76.65908     9.84295
       798 15885.48628    76.60952    77.78358     9.72835
       799 15898.19467    77.03463    78.40070     9.67229
       800 15910.91323    76.37730    77.92119     9.73148
       801 15923.64196    78.34522    78.95296     9.63244
       802 15936.38087    85.51678    85.70225     8.99231
       803 15949.12998    92.94570    93.46588     8.35439
       804 15961.88928    93.95559    96.69067     8.12118
       805 15974.65879    91.94270    93.88918     8.34004
       806 15987.43852    94.86838    95.66571     8.21474
       807 16000.22847    97.04063    97.79124     8.06814
       808 16013.02865    92.92430    93.59008     8.38924
       809 16025.83907    85.90068    86.83367     8.95339
       810 16038.65975    82.61344    83.66185     9.24426
       811 16051.49067    83.57622    85.33400     9.08817
       812 16064.33187    83.72695    85.70227     9.05045
       813 16077.18333    84.86416    86.08503     9.01021
       814 16090.04508    85.76959    87.09745     8.91552
       815 16102.91711    88.09593    89.32903     8.72195
       816 16115.79945    90.83598    92.52800     8.46243
       817 16128.69209    88.60911    89.38276     8.72064
       818 16141.59504    85.73254    86.32589     8.99218
       819 16154.50832    86.49809    86.01143     9.03182
       820 16167.43192    90.53752    90.06802     8.69253
       821 16180.36587    90.13606    92.58305     8.49624
       822 16193.31016    84.78634    86.01701     9.05502
       823 16206.26481    81.15688    80.68500     9.56749
       824 16219.22982    83.24862    81.50671     9.49481
       825 16232.20521    89.11972    86.57441     9.02921
       826 16245.19097    91.62815    90.40519     8.70774
       827 16258.18712    91.46775    91.24689     8.64424
       828 16271.19367    93.81844    94.31984     8.40538
       829 16284.21063    99.40573   100.22959     7.97738
       830 16297.23800   102.68755   102.77008     7.80857
       831 16310.27579   101.50463   101.33930     7.90844
       832 16323.32401    95.28445    95.87250     8.30248
       833 16336.38267    91.39833    91.46923     8.64938
       834 16349.45177    92.35695    92.36504     8.57724
       835 16362.53133    87.99536    88.53431     8.89407
       836 16375.62136    80.70850    82.68416     9.42670
       837 16388.72186    79.68471    80.16367     9.67709
       838 16401.83283    83.02910    83.30184     9.37267
       839 16414.95430    83.75525    83.78503     9.33780
       840 16428.08626    84.93204    85.31883     9.20794
       841 16441.22873    87.31715    87.80866     8.99602
       842 16454.38172    87.36014    88.78803     8.91933
       843 16467.54522    87.20032    88.26389     8.96907
       844 16480.71926    85.31129    86.66543     9.11259
       845 16493.90383    79.64530    82.73171     9.48169
       846 16507.09896    75.67669    77.76467     9.98988
       847 16520.30463    77.97294    78.93913     9.86360
       848 16533.52088    79.15085    80.65669     9.68872
       849 16546.74769    75.96582    77.24359    10.05433
       850 16559.98509    74.05346    76.03566    10.19809
       851 16573.23308    80.10578    80.36155     9.74841
       852 16586.49167    93.37580    93.80475     8.55342
       853 16599.76086    97.41347    99.77831     8.11775
       854 16613.04067    89.27413    91.65310     8.74786
       855 16626.33110    82.02101    81.27280     9.70006
       856 16639.63217    78.35810    78.15503    10.02505
       857 16652.94387    76.50058    75.79839    10.28094
       858 16666.26623    79.40025    77.27593    10.10937
       859 16679.59924    84.02078    82.18437     9.59524
       860 16692.94292    81.06282    81.18135     9.69852
       861 16706.29727    75.12562    75.03637    10.36999
       862 16719.66231    71.65840    71.31041    10.83090
       863 16733.03804    69.90143    71.02274    10.87916
       864 16746.42447    70.30950    71.27394    10.85625
       865 16759.82161    74.96608    75.26365    10.37872
       866 16773.22947    80.30424    80.12927     9.84791
       867 16786.64805    79.54843    80.17483     9.84409
       868 16800.07737    80.18374    80.63788     9.79649
       869 16813.51743    88.98702    90.08858     8.91588
       870 16826.96825    97.61861    97.93246     8.30087
       871 16840.42982   104.87069   104.05334     7.88021
       872 16853.90217   106.49246   106.25877     7.74313
       873 16867.38529   104.26898   104.75121     7.84799
       874 16880.87920   106.44423   106.75606     7.72656
       875 16894.38390   110.09407   109.82610     7.54287
       876 16907.89941   105.76070   105.17883     7.84058
       877 16921.42573    95.91934    96.09473     8.48856
       878 16934.96287    84.43759    85.29746     9.41149
       879 16948.51084    77.00348    77.63276    10.20161
       880 16962.06965    77.06277    77.07627    10.27103
       881 16975.63930    78.63300    78.99001    10.06683
       882 16989.21981    78.41287    79.46121    10.02136
       883 17002.81119    80.01746    80.34973     9.93470
       884 17016.41344    83.68606    84.77390     9.50362
       885 17030.02657    83.09048    84.74451     9.52034
       886 17043.65059    81.95531    82.03121     9.80072
       887 17057.28551    81.79791    82.62053     9.74702
       888 17070.93134    80.64613    81.14078     9.89738
       889 17084.58808    83.76715    83.51085     9.65640
       890 17098.25575    88.82691    87.87835     9.24582
       891 17111.93436    88.31720    89.40680     9.11432
       892 17125.62391    83.19609    82.81434     9.73659
       893 17139.32440    79.79770    79.64997    10.07076
       894 17153.03586    80.08180    79.34581    10.11538
       895 17166.75829    83.38998    84.17397     9.63794
       896 17180.49170    85.57210    85.68476     9.51123
       897 17194.23609    86.83695    86.40919     9.46057
       898 17207.99148    91.31194    92.19887     8.95845
       899 17221.75788    91.38397    94.50992     8.77321
       900 17235.53528    83.02588    84.52598     9.65857
       901 17249.32371    75.73156    74.73367    10.71630
       902 17263.12317    74.11476    73.81629    10.82942
       903 17276.93367    74.73981    75.68954    10.61057
       904 17290.75521    75.68360    77.32649    10.42812
       905 17304.58782    75.20946    76.42341    10.53676
       906 17318.43149    74.98121    76.50623    10.53230
       907 17332.28623    77.19667    79.22181    10.23745
       908 17346.15206    78.73493    80.94157    10.06666
       909 17360.02898    80.46639    81.62906    10.00751
       910 17373.91701    84.73976    84.63065     9.71404
       911 17387.81614    87.90028    87.03543     9.48980
       912 17401.72639    85.75761    85.55479     9.63141
       913 17415.64778    83.42430    84.62549     9.71954
       914 17429.58029    81.45727    81.99360     9.98047
       915 17443.52396    80.73942    80.45958    10.13820
       916 17457.47878    88.18274    87.18981     9.46767
       917 17471.44476   101.70590   100.97628     8.33861
       918 17485.42192   111.09370   114.10660     7.48868
       919 17499.41025   112.09201   113.58945     7.52127
       920 17513.40978   109.18344   105.79071     8.01209
       921 17527.42051   102.54465    98.95812     8.49827
       922 17541.44245    95.00158    93.70975     8.91301
       923 17555.47560    97.44500    96.81957     8.66398
       924 17569.51998   102.05166   102.88119     8.21712
       925 17583.57560    99.61809   101.48788     8.31793
       926 17597.64246    96.33318    96.12503     8.72426
       927 17611.72057    94.15448    94.65217     8.84420
       928 17625.80995    88.02270    87.92403     9.42596
       929 17639.91059    80.15859    79.34663    10.28810
       930 17654.02252    74.30704    73.82955    10.93385
       931 17668.14574    70.72573    70.53352    11.36474
       932 17682.28026    72.54943    72.25531    11.15028
       933 17696.42608    79.50891    79.05991    10.35178
       934 17710.58322    84.87976    85.73460     9.67343
       935 17724.75169    87.99337    88.51664     9.42092
       936 17738.93149    92.12554    90.46152     9.25350
       937 17753.12264    97.70950    94.45354     8.92073
       938 17767.32513   105.43182   103.41953     8.24778
       939 17781.53899   104.02477   106.66860     8.03248
       940 17795.76423    96.59612    95.86896     8.82432
       941 17810.00084    92.74746    91.31854     9.20508
       942 17824.24884    89.21658    88.62945     9.44259
       943 17838.50824    84.40714    84.47967     9.83397
       944 17852.77904    83.09285    82.67122    10.01331
       945 17867.06127    86.74148    86.03484     9.67724
       946 17881.35492    94.10913    95.73803     8.82794
       947 17895.66000   107.52810   106.68424     8.03505
       948 17909.97653   118.69656   117.56389     7.37897
       949 17924.30451   111.33176   111.86893     7.71846
       950 17938.64395    96.31632    94.76856     8.93683
       951 17952.99487    83.20638    82.74761    10.05529
       952 17967.35726    76.88814    76.21226    10.79266
       953 17981.73115    78.33842    77.78879    10.61348
       954 17996.11653    84.47532    84.27934     9.91297
       955 18010.51343    95.87172    94.80233     8.94941
       956 18024.92184   105.85815   104.25955     8.22683
       957 18039.34178   100.96954   100.53442     8.48457
       958 18053.77325    87.72601    87.06363     9.60155
       959 18068.21627    79.59728    78.34629    10.49787
       960 18082.67084    79.01135    79.07311    10.41530
       961 18097.13698    85.74753    84.41421     9.85144
       962 18111.61469    97.48497    96.23905     8.79575
       963 18126.10398   100.76320   102.79561     8.29920
       964 18140.60486    92.53663    93.03242     9.04776
       965 18155.11735    83.18819    82.60691    10.01265
       966 18169.64144    78.32652    77.25954    10.58494
       967 18184.17715    79.71487    79.86179    10.27646
       968 18198.72449    83.67624    83.57505     9.86759
       969 18213.28347    89.16543    88.26509     9.39185
       970 18227.85410    93.69157    93.69517     8.89136
       971 18242.43638    94.21204    94.95167     8.75701
       972 18257.03033    94.45339    94.70040     8.74354
       973 18271.63596    93.28010    94.52105     8.72630
       974 18286.25327    88.68233    89.00308     9.16050
       975 18300.88227    84.35386    84.11927     9.59207
       976 18315.52297    82.88056    81.95236     9.79767
       977 18330.17539    85.77015    83.55109     9.63561
       978 18344.83953    92.42193    91.57822     8.90461
       979 18359.51540    99.87663    98.30819     8.36556
       980 18374.20302   109.22153   108.26503     7.67446
       981 18388.90238   109.47415   110.07902     7.54517
       982 18403.61350   100.37069    98.53133     8.29417
       983 18418.33639    92.76720    91.53192     8.81726
       984 18433.07106    88.36970    86.28760     9.24905
       985 18447.81752    87.43936    85.39807     9.30354
       986 18462.57577    87.36329    88.04404     9.03527
       987 18477.34583    82.77394    84.16760     9.36120
       988 18492.12771    76.95874    76.06758    10.16937
       989 18506.92141    75.94585    74.83553    10.27846
       990 18521.72695    83.55856    83.04538     9.38150
       991 18536.54433    93.98520    94.36448     8.37780
       992 18551.37357    93.50196    93.19356     8.44423
       993 18566.21466    84.44754    84.42576     9.17000
       994 18581.06764    76.12964    76.13665     9.98518
       995 18595.93249    71.47722    71.82494    10.45813
       996 18610.80924    69.69962    70.92164    10.54006
       997 18625.69788    71.77848    72.91759    10.26816
       998 18640.59844    80.75896    79.75855     9.48855
       999 18655.51092    92.49975    92.09463     8.35582
      1000 18670.43533   100.49806    99.55171     7.77817
      1001 18685.37168   109.90342   108.60355     7.17921
      1002 18700.31998   110.11028   110.32825     7.05788
      1003 18715.28023   101.43826   100.82545     7.62030
      1004 18730.25246    98.79380    97.61079     7.81941
      1005 18745.23666    99.13918   100.00085     7.63661
      1006 18760.23285    92.97608    93.02843     8.11401
      1007 18775.24103    86.71982    86.11339     8.65519
      1008 18790.26123    87.87072    86.69476     8.58846
      1009 18805.29343    92.44827    92.97683     8.06820
      1010 18820.33767    91.05669    92.55997     8.08181
      1011 18835.39394    85.82891    85.53458     8.63179
      1012 18850.46226    85.55601    83.81598     8.76210
      1013 18865.54262    87.52709    86.56760     8.50265
      1014 18880.63506    83.70019    83.14289     8.78395
      1015 18895.73957    77.55641    76.85185     9.37398
      1016 18910.85616    75.20158    75.49167     9.49712
      1017 18925.98484    77.86971    77.59307     9.25877
      1018 18941.12563    84.39108    84.24169     8.61276
      1019 18956.27853    89.47475    89.87010     8.12727
      1020 18971.44355    93.42831    91.23161     8.00361
      1021 18986.62071    97.59551    94.62318     7.73748
      1022 19001.81001    96.02030    94.36076     7.74249
      1023 19017.01145    91.65042    91.03730     7.97536
      1024 19032.22506    88.31686    88.92773     8.12891
      1025 19047.45084    84.33257    85.37323     8.40981
      1026 19062.68880    80.97180    80.30323     8.85063
      1027 19077.93896    81.81781    81.02184     8.77460
      1028 19093.20131    83.86305    82.63703     8.61997
      1029 19108.47587    85.71082    84.37232     8.45756
      1030 19123.76265    89.67746    88.45168     8.10734
      1031 19139.06166    95.12333    95.02500     7.60374
      1032 19154.37291    98.19137    97.15945     7.44382
      1033 19169.69641    96.06674    94.46735     7.61622
      1034 19185.03216    93.42945    90.43601     7.90054
      1035 19200.38019    93.70482    93.34144     7.68131
      1036 19215.74049    89.15655    89.97448     7.92449
      1037 19231.11309    85.33475    83.81530     8.41577
      1038 19246.49798    91.15202    88.94379     7.98572
      1039 19261.89517    98.89354    98.50997     7.29263
      1040 19277.30469    99.55322    99.27868     7.22616
      1041 19292.72653    94.40985    96.10166     7.41493
      1042 19308.16072    89.26188    89.63538     7.85645
      1043 19323.60724    88.87637    88.29922     7.93770
      1044 19339.06613    90.76182    90.72819     7.73313
      1045 19354.53738    94.25959    93.38767     7.52064
      1046 19370.02101    97.46131    97.65738     7.21246
      1047 19385.51703    96.51671    96.90169     7.23994
      1048 19401.02544    97.47739    95.91870     7.28312
      1049 19416.54626   104.43026   104.04990     6.76330
      1050 19432.07950   105.57017   105.65598     6.65456
      1051 19447.62516    97.74058    97.73272     7.10743
      1052 19463.18326    86.30149    84.90976     8.00877
      1053 19478.75381    76.92894    76.28023     8.75492
      1054 19494.33681    70.71061    70.92349     9.28772
      1055 19509.93228    68.02457    67.50213     9.65556
      1056 19525.54023    69.22603    69.43164     9.40417
      1057 19541.16066    71.72511    73.03896     8.98183
      1058 19556.79359    71.55796    72.46870     9.00580
      1059 19572.43902    70.94492    71.66365     9.05410
      1060 19588.09698    75.34004    74.79423     8.70119
      1061 19603.76745    86.81364    85.93278     7.70166
      1062 19619.45047    97.49210    98.43312     6.81979
      1063 19635.14603    96.24112    98.09643     6.81618
      1064 19650.85414    87.05574    87.15096     7.52751
      1065 19666.57483    83.49456    83.21768     7.80378
      1066 19682.30809    90.79800    90.52084     7.23054
      1067 19698.05393   106.23439   104.91900     6.32980
      1068 19713.81238   117.43878   116.51120     5.74424
      1069 19729.58343   109.83769   110.04543     6.01928
      1070 19745.36709    94.82653    94.20176     6.87322
      1071 19761.16339    88.10637    87.96422     7.26703
      1072 19776.97232    88.98336    89.48586     7.13584
      1073 19792.79390    90.97193    91.95002     6.94609
      1074 19808.62813    91.39891    92.14104     6.90873
      1075 19824.47503    89.60562    88.62108     7.11829
      1076 19840.33461    87.52062    86.77206     7.21902
      1077 19856.20688    84.21834    83.90277     7.39924
      1078 19872.09185    80.45407    81.24227     7.57395
      1079 19887.98952    77.29245    78.16556     7.79703
      1080 19903.89991    75.95953    76.28454     7.93052
      1081 19919.82303    77.28293    77.30069     7.81335
      1082 19935.75889    80.05287    80.40355     7.52852
      1083 19951.70750    85.48120    85.06716     7.14755
      1084 19967.66886    94.21560    92.39356     6.63069
      1085 19983.64300    99.98862    98.15989     6.26524
      1086 19999.62991    96.43099    95.88250     6.36900
      1087 20015.62962    89.98991    89.08448     6.76081
      1088 20031.64212    92.20179    91.98284     6.54499
      1089 20047.66743   103.09347   102.59726     5.92051
      1090 20063.70557   113.95912   113.49662     5.39055
      1091 20079.75653   128.10837   124.83608     4.92997
      1092 20095.82034   141.17045   144.43514     4.30189
      1093 20111.89699   131.07462   137.87493     4.46871
      1094 20127.98651   106.05390   103.54176     5.74957
      1095 20144.08890    86.74509    82.62764     6.96216
      1096 20160.20417    76.13092    73.52215     7.65112
      1097 20176.33234    70.56087    70.23918     7.91674
      1098 20192.47340    67.91164    68.47912     8.05541
      1099 20208.62738    68.74265    69.21975     7.95320
      1100 20224.79428    76.96730    76.00330     7.32180
      1101 20240.97412    93.60340    93.88876     6.07867
      1102 20257.16690   105.68418   108.13166     5.34396
      1103 20273.37263   105.98592   106.63820     5.38596
      1104 20289.59133   107.43990   105.42678     5.41663
      1105 20305.82300   113.29719   112.80790     5.07928
      1106 20322.06766   108.79547   111.37981     5.11665
      1107 20338.32531    95.83923    95.23832     5.85189
      1108 20354.59597    87.08043    84.73585     6.45461
      1109 20370.87965    84.94188    83.72576     6.49978
      1110 20387.17635    84.36557    83.81674     6.46768
      1111 20403.48610    80.00170    81.19880     6.61576
      1112 20419.80888    76.90878    79.22968     6.72266
      1113 20436.14473    83.61998    85.19785     6.28690
      1114 20452.49365   103.37206   102.85526     5.31350
      1115 20468.85564   125.19068   125.00702     4.45081
      1116 20485.23073   130.16412   129.08202     4.31104
      1117 20501.61891   119.83198   118.21645     4.65357
      1118 20518.02021   102.42214   101.34056     5.32289
      1119 20534.43462    85.90503    83.69275     6.27155
      1120 20550.86217    75.52217    73.86124     6.96041
      1121 20567.30286    69.65405    68.60903     7.39176
      1122 20583.75670    67.11925    66.96956     7.52969
      1123 20600.22371    67.11949    67.95138     7.42507
      1124 20616.70389    67.96055    69.94423     7.23221
      1125 20633.19725    70.44759    71.55292     7.07988
      1126 20649.70381    75.34247    74.71328     6.81243
      1127 20666.22357    78.35504    78.04249     6.55233
      1128 20682.75655    77.00965    75.58152     6.72090
      1129 20699.30275    75.29348    74.61508     6.78376
      1130 20715.86220    74.64125    73.20063     6.88380
      1131 20732.43489    73.44096    72.72662     6.91126
      1132 20749.02083    73.30123    72.49443     6.92039
      1133 20765.62005    78.38675    77.61553     6.52635
      1134 20782.23255    86.65201    87.21836     5.90137
      1135 20798.85833    92.05698    92.04375     5.62854
      1136 20815.49742    91.05990    90.87641     5.68776
      1137 20832.14982    86.22366    85.56435     5.98848
      1138 20848.81554    82.80216    81.89708     6.21319
      1139 20865.49459    80.17511    79.53519     6.36366
      1140 20882.18699    76.91551    75.65606     6.62875
      1141 20898.89274    74.47308    73.55742     6.77233
      1142 20915.61185    77.19667    75.61851     6.59650
      1143 20932.34434    87.93214    86.40186     5.86574
      1144 20949.09021   102.57128   103.57052     4.99099
      1145 20965.84949   121.06707   120.10995     4.36187
      1146 20982.62217   156.21486   153.95704     3.47389
      1147 20999.40826   187.47816   188.80517     2.87044
      1148 21016.20779   181.05342   182.84982     2.95085
      1149 21033.02076   157.69162   154.87708     3.43256
      1150 21049.84717   143.28997   140.51201     3.74421
      1151 21066.68705   136.28433   133.96907     3.90112
      1152 21083.54040   128.33177   127.71593     4.06295
      1153 21100.40723   113.51183   114.75004     4.46043
      1154 21117.28756    99.39188    99.67024     5.03877
      1155 21134.18139    91.18545    92.00818     5.38609
      1156 21151.08873    87.49795    87.22790     5.62246
      1157 21168.00961    85.45458    85.79366     5.68547
      1158 21184.94401    84.82546    84.50734     5.74229
      1159 21201.89197    85.64072    86.26441     5.62247
      1160 21218.85348    85.82217    86.27571     5.60084
      1161 21235.82856    85.87680    85.54370     5.61996
      1162 21252.81723    88.19401    87.41498     5.49590
      1163 21269.81948    90.73407    91.11877     5.28406
      1164 21286.83534    88.98821    90.05589     5.32034
      1165 21303.86481    85.59938    85.49801     5.54604
      1166 21320.90790    82.99619    82.22845     5.71713
      1167 21337.96462    80.23014    80.40531     5.81129
      1168 21355.03499    78.99436    78.82262     5.89467
      1169 21372.11902    79.83107    79.87153     5.81252
      1170 21389.21672    84.15668    84.85293     5.49880
      1171 21406.32809    92.52239    93.75719     5.02169
      1172 21423.45315    97.85120    99.47421     4.74751
      1173 21440.59192    99.47523   100.32727     4.69260
      1174 21457.74439   110.61955   109.15837     4.33725
      1175 21474.91059   133.00292   133.17420     3.61365
      1176 21492.09051   143.01944   145.57988     3.31881
      1177 21509.28419   137.27986   138.31557     3.46265
      1178 21526.49161   133.02270   131.92984     3.59867
      1179 21543.71281   128.60300   128.53312     3.66755
      1180 21560.94778   121.36639   121.04744     3.85189
      1181 21578.19654   115.50894   113.78215     4.05044
      1182 21595.45909   111.39139   110.81904     4.12617
      1183 21612.73546   105.94815   106.32934     4.25939
      1184 21630.02565   105.66459   104.91455     4.29070
      1185 21647.32967   114.50617   111.87781     4.03848
      1186 21664.64753   121.74711   122.68211     3.70655
      1187 21681.97925   118.56858   121.45783     3.72568
      1188 21699.32483   107.70811   108.54511     4.10115
      1189 21716.68429    97.59970    97.15945     4.50288
      1190 21734.05764    93.17555    93.26551     4.64803
      1191 21751.44489    91.34304    92.46158     4.66438
      1192 21768.84604    89.32063    89.64299     4.77186
      1193 21786.26112    89.10148    89.85914     4.74334
      1194 21803.69013    89.54856    90.17607     4.71156
      1195 21821.13308    85.31810    87.15213     4.83479
      1196 21838.58999    78.62624    79.70907     5.19914
      1197 21856.06086    75.12307    77.02059     5.32834
      1198 21873.54571    76.04863    77.20224     5.29145
      1199 21891.04454    82.42209    83.22239     4.93954
      1200 21908.55738    89.96145    90.46728     4.57563
      1201 21926.08423    89.45955    89.60192     4.59271
      1202 21943.62509    86.53973    86.61090     4.70665
      1203 21961.17999    91.89250    93.13168     4.39699
      1204 21978.74894   102.19900   105.07850     3.93465
      1205 21996.33194   107.16994   110.41163     3.74650
      1206 22013.92900   115.00124   117.14176     3.53671
      1207 22031.54015   141.95700   140.11189     2.99645
      1208 22049.16538   184.93549   181.01284     2.35888
      1209 22066.80471   205.73583   203.39852     2.10791
      1210 22084.45815   181.20903   180.02665     2.35279
      1211 22102.12572   145.74295   142.91894     2.89821
      1212 22119.80742   123.41125   123.18501     3.30169
      1213 22137.50327   112.93665   111.84927     3.58447
      1214 22155.21327   106.90248   106.94403     3.71437
      1215 22172.93744    99.04127   100.81040     3.89644
      1216 22190.67579    88.00916    89.25763     4.31469
      1217 22208.42833    77.43206    77.70828     4.83809
      1218 22226.19507    70.73367    70.46850     5.23009
      1219 22243.97603    68.52175    68.49644     5.33241
      1220 22261.77121    69.33896    69.90909     5.22349
      1221 22279.58063    70.33246    71.35734     5.11769
      1222 22297.40429    70.33784    70.50402     5.15262
      1223 22315.24222    69.08156    69.82867     5.17537
      1224 22333.09441    67.07953    67.61323     5.29709
      1225 22350.96088    66.22214    67.89864     5.26433
      1226 22368.84165    69.31188    70.61981     5.08588
      1227 22386.73673    81.89744    83.12180     4.42319
      1228 22404.64612   106.93054   108.63283     3.49438
      1229 22422.56983   129.85536   134.92270     2.87011
      1230 22440.50789   134.19596   138.04518     2.80505
      1231 22458.46030   126.11230   124.62358     3.07113
      1232 22476.42706   112.75132   110.62137     3.41100
      1233 22494.40820   101.99632    99.30844     3.74764
      1234 22512.40373    95.53269    93.55830     3.94533
      1235 22530.41365    86.96309    86.71738     4.21069
      1236 22548.43799    77.14139    77.57415     4.62761
      1237 22566.47674    70.96598    70.28399     5.02299
      1238 22584.52992    70.92893    71.69681     4.93507
      1239 22602.59754    78.28341    79.00493     4.54284
      1240 22620.67962    89.51768    90.44871     4.04192
      1241 22638.77616    95.07941    95.62727     3.84868
      1242 22656.88718    91.16506    92.41951     3.96378
      1243 22675.01269    84.82188    83.97103     4.30606
      1244 22693.15270    82.36355    80.31246     4.47396
      1245 22711.30723    81.22532    80.39205     4.47096
      1246 22729.47627    79.07857    77.84396     4.59599
      1247 22747.65985    79.31359    77.19514     4.62888
      1248 22765.85798    85.23491    84.20994     4.29703
      1249 22784.07067    99.08579    97.42549     3.78520
      1250 22802.29792   117.65432   118.84506     3.17284
      1251 22820.53976   129.91363   132.16598     2.88201
      1252 22838.79619   134.22965   135.20940     2.82194
      1253 22857.06723   137.02761   138.03280     2.76818
      1254 22875.35288   135.37906   136.62672     2.79216
      1255 22893.65317   123.37427   122.20770     3.08577
      1256 22911.96809   108.12170   105.96878     3.50087
      1257 22930.29766    95.72509    92.82881     3.92704
      1258 22948.64190    87.00527    84.98436     4.23258
      1259 22967.00082    83.99808    81.47971     4.38245
      1260 22985.37442    89.80968    86.93749     4.14055
      1261 23003.76272   102.55705   101.94004     3.59885
      1262 23022.16573   114.81314   116.99891     3.17896
      1263 23040.58346   121.45694   124.49140     3.00066
      1264 23059.01593   119.53843   123.49125     3.01562
      1265 23077.46314   110.05254   110.07844     3.33301
      1266 23095.92511   105.43441   100.80589     3.59132
      1267 23114.40185   108.94962   105.31749     3.44422
      1268 23132.89337   113.29885   112.46217     3.23913
      1269 23151.39968   118.67373   118.31107     3.08594
      1270 23169.92080   126.94477   129.32397     2.84017
      1271 23188.45674   125.04325   128.93563     2.83952
      1272 23207.00751   112.27278   111.69534     3.21935
      1273 23225.57311   100.11555    97.40492     3.62172
      1274 23244.15357    93.97983    90.99028     3.83228
      1275 23262.74889    91.02180    87.72725     3.94432
      1276 23281.35909    85.41564    83.51629     4.10442
      1277 23299.98418    78.99897    77.05739     4.38528
      1278 23318.62417    75.88840    74.50182     4.50036
      1279 23337.27907    75.34872    74.86528     4.46842
      1280 23355.94889    76.61506    75.98194     4.39820
      1281 23374.63365    81.45911    81.09211     4.14638
      1282 23393.33336    90.96133    92.15368     3.70039
      1283 23412.04802    97.55587    99.51017     3.44923
      1284 23430.77766    92.12035    93.67879     3.62598
      1285 23449.52228    82.76802    82.19370     4.04846
      1286 23468.28190    79.10326    77.34708     4.25009
      1287 23487.05653    79.37010    78.22297     4.19390
      1288 23505.84617    77.13363    76.31464     4.26692
      1289 23524.65085    72.94172    72.71378     4.42916
      1290 23543.47057    70.40487    70.42994     4.53359
      1291 23562.30535    72.74592    74.30385     4.31662
      1292 23581.15519    82.05363    82.84382     3.91679
      1293 23600.02011    95.27810    96.41819     3.41849
      1294 23618.90013   106.32520   108.79482     3.06060
      1295 23637.79525   113.49594   115.01546     2.90132
      1296 23656.70549   120.10050   118.22387     2.82038
      1297 23675.63085   133.47445   131.50339     2.55465
      1298 23694.57136   146.44287   151.95823     2.23286
      1299 23713.52701   138.94232   145.56862     2.31432
      1300 23732.49783   118.39485   118.01882     2.78729
      1301 23751.48383   102.13071    99.74311     3.22495
      1302 23770.48502    91.46202    89.33154     3.54081
      1303 23789.50141    83.81298    83.61048     3.73778
      1304 23808.53301    79.90888    80.45128     3.84982
      1305 23827.57984    78.13189    79.70269     3.86597
      1306 23846.64190    77.12870    79.12947     3.87532
      1307 23865.71921    77.62259    77.20344     3.94302
      1308 23884.81179    78.28762    77.21330     3.92729
      1309 23903.91964    78.32523    77.89324     3.88253
      1310 23923.04277    77.53273    77.72197     3.87414
      1311 23942.18121    75.46668    75.84782     3.93893
      1312 23961.33495    72.58076    72.41217     4.07980
      1313 23980.50402    70.40269    71.45637     4.11058
      1314 23999.68842    69.20935    70.57497     4.13800
      1315 24018.88817    68.73023    69.90138     4.15562
      1316 24038.10328    70.71917    72.07887     4.03486
      1317 24057.33377    77.65625    79.30845     3.70763
      1318 24076.57963    88.98606    90.91318     3.28439
      1319 24095.84090    99.56170   100.62834     2.99299
      1320 24115.11757   103.31333   104.81564     2.87388
      1321 24134.40967   104.89777   106.28041     2.82554
      1322 24153.71719   109.47336   110.07801     2.72770
      1323 24173.04017   112.75734   112.68557     2.66184
      1324 24192.37860   111.70445   110.37643     2.70193
      1325 24211.73250   103.16891   100.80974     2.91704
      1326 24231.10189    90.00456    90.49368     3.19344
      1327 24250.48677    78.50908    78.53732     3.59125
      1328 24269.88716    71.88644    71.45506     3.87207
      1329 24289.30307    68.84008    69.84408     3.92928
      1330 24308.73451    66.97433    67.53937     4.02358
      1331 24328.18150    65.60202    66.61761     4.05417
      1332 24347.64404    64.94595    66.15323     4.06280
      1333 24367.12216    66.01622    66.93328     4.00947
      1334 24386.61586    71.39467    72.84996     3.72427
      1335 24406.12515    83.02516    83.51519     3.30682
      1336 24425.65005    95.57901    96.42536     2.91184
      1337 24445.19057    99.44600   101.58162     2.77343
      1338 24464.74672    97.60094    99.01460     2.82740
      1339 24484.31852   100.13304   101.29459     2.76355
      1340 24503.90597   109.90748   111.34970     2.53550
      1341 24523.50910   117.00742   117.74112     2.40593
      1342 24543.12791   113.87652   114.52463     2.45817
      1343 24562.76241   106.56371   106.87567     2.60404
      1344 24582.41262    98.98757    99.10883     2.77207
      1345 24602.07855    93.75067    93.65802     2.90071
      1346 24621.76021    92.11637    91.53037     2.94760
      1347 24641.45762    89.05614    89.25217     3.00159
      1348 24661.17079    82.26820    82.79550     3.19020
      1349 24680.89972    75.22060    74.60866     3.47292
      1350 24700.64444    70.83011    70.58937     3.62727
      1351 24720.40496    69.43470    70.35185     3.62596
      1352 24740.18128    69.92574    71.25253     3.57467
      1353 24759.97343    73.50660    75.49458     3.39293
      1354 24779.78141    84.81171    86.67241     3.00501
      1355 24799.60523   104.81912   106.51988     2.50038
      1356 24819.44491   122.26945   123.76429     2.17850
      1357 24839.30047   120.74694   121.26898     2.20910
      1358 24859.17191   102.91408   101.88743     2.56693
      1359 24879.05925    84.35956    83.23468     3.04772
      1360 24898.96250    72.78541    72.58515     3.41434
      1361 24918.88167    67.38346    66.40944     3.67041
      1362 24938.81677    65.44577    66.19781     3.67343
      1363 24958.76782    64.90175    66.97908     3.62780
      1364 24978.73484    65.02312    66.09150     3.65386
      1365 24998.71783    66.37958    68.61503     3.52608
      1366 25018.71680    68.70048    71.01272     3.40959
      1367 25038.73177    70.50713    71.60569     3.36867
      1368 25058.76276    72.11869    73.03820     3.29760
      1369 25078.80977    75.15193    75.24808     3.20269
      1370 25098.87282    78.01955    77.59915     3.11022
      1371 25118.95192    76.99709    76.74082     3.13164
      1372 25139.04708    73.78014    73.56722     3.23845
      1373 25159.15832    73.29788    73.23764     3.24384
      1374 25179.28564    78.65778    78.61044     3.04885
      1375 25199.42907    90.20256    90.00915     2.70843
      1376 25219.58861   101.49082   101.32214     2.43724
      1377 25239.76428   102.50667   102.61810     2.40452
      1378 25259.95610    96.26315    96.14506     2.54026
      1379 25280.16406    90.05987    88.97640     2.71285
      1380 25300.38819    83.29410    83.65743     2.85813
      1381 25320.62850    76.17184    75.76710     3.10757
      1382 25340.88501    72.64016    72.15067     3.23646
      1383 25361.15771    76.57316    77.57376     3.04416
      1384 25381.44664    88.56609    89.45451     2.69423
      1385 25401.75180    99.68252   101.19347     2.41878
      1386 25422.07320    98.60069   100.22338     2.43759
      1387 25442.41086    90.53777    89.41992     2.68839
      1388 25462.76479    85.03216    83.83868     2.83599
      1389 25483.13500    82.32977    82.47065     2.87109
      1390 25503.52151    81.13243    82.27324     2.87416
      1391 25523.92432    84.35359    86.45716     2.75529
      1392 25544.34346    93.88115    92.78650     2.59363
      1393 25564.77894   105.24997   103.90087     2.35099
      1394 25585.23076   107.66711   108.63623     2.26133
      1395 25605.69894    99.61992    99.13731     2.45166
      1396 25626.18350    89.94374    89.21259     2.68817
      1397 25646.68445    84.32788    83.44580     2.84842
      1398 25667.20180    82.42954    81.91816     2.89380
      1399 25687.73556    80.67424    79.40154     2.96957
      1400 25708.28575    78.12620    76.65116     3.05561
      1401 25728.85238    76.18977    75.51541     3.09019
      1402 25749.43546    77.73372    77.12024     3.03350
      1403 25770.03501    84.15252    83.16252     2.84563
      1404 25790.65103    90.00839    88.39827     2.70280
      1405 25811.28356    89.06745    88.29491     2.71006
      1406 25831.93258    84.36674    84.29040     2.82609
      1407 25852.59813    83.09397    83.41987     2.85544
      1408 25873.28021    90.84547    89.91528     2.67560
      1409 25893.97883   103.98892   105.15352     2.32721
      1410 25914.69401   108.24204   112.00913     2.19264
      1411 25935.42577   100.40092   100.70791     2.39830
      1412 25956.17411    90.02677    87.65664     2.69261
      1413 25976.93905    83.95672    81.94849     2.84009
      1414 25997.72060    83.54938    81.78741     2.83609
      1415 26018.51878    84.12541    83.41761     2.78296
      1416 26039.33359    81.38593    79.50082     2.89421
      1417 26060.16506    78.15109    77.08277     2.96616
      1418 26081.01319    79.18186    80.62336     2.85220
      1419 26101.87800    91.02986    93.46988     2.50930
      1420 26122.75950   126.20836   129.44089     1.87788
      1421 26143.65771   186.92501   189.30593     1.32182
      1422 26164.57264   233.33372   234.38823     1.07859
      1423 26185.50430   219.98677   220.49233     1.13860
      1424 26206.45270   169.38126   168.27089     1.45915
      1425 26227.41786   125.31438   122.63235     1.93731
      1426 26248.39980   103.56037   102.46264     2.26052
      1427 26269.39852    96.45802    94.48859     2.41390
      1428 26290.41403    91.10226    91.08303     2.48048
      1429 26311.44637    83.01588    81.45681     2.71915
      1430 26332.49552    75.50682    74.52097     2.92179
      1431 26353.56152    71.80291    71.58409     3.01410
      1432 26374.64437    71.80185    72.00662     2.99333
      1433 26395.74408    72.61226    73.85418     2.92325
      1434 26416.86068    71.70635    71.65552     2.98787
      1435 26437.99417    69.70713    70.06839     3.03130
      1436 26459.14456    68.90936    69.64408     3.03315
      1437 26480.31188    70.75509    71.66894     2.95127
      1438 26501.49613    74.10988    75.89876     2.80461
      1439 26522.69733    76.80910    77.96589     2.73321
      1440 26543.91548    79.80780    81.99033     2.60752
      1441 26565.15062    84.42024    85.78181     2.49476
      1442 26586.40274    87.78531    89.73099     2.38549
      1443 26607.67186    89.59371    92.00685     2.32093
      1444 26628.95800    92.96369    92.90279     2.28974
      1445 26650.26116    95.99596    96.97362     2.19660
      1446 26671.58137    93.18820    94.07032     2.24700
      1447 26692.91864    85.05916    86.42845     2.40995
      1448 26714.27297    77.28446    78.83850     2.59929
      1449 26735.64439    74.37600    75.59503     2.68551
      1450 26757.03290    78.25240    79.80332     2.55647
      1451 26778.43853    87.93825    91.06672     2.27376
      1452 26799.86128    99.03376   102.62043     2.03961
      1453 26821.30117   111.00669   113.75553     1.85307
      1454 26842.75821   127.28569   129.00993     1.64728
      1455 26864.23242   141.35205   143.73104     1.48636
      1456 26885.72380   142.92558   144.62004     1.47070
      1457 26907.23238   135.00044   134.77554     1.56068
      1458 26928.75817   123.10659   121.26349     1.70948
      1459 26950.30118   109.69655   107.41691     1.89757
      1460 26971.86142    98.64655    95.79522     2.09170
      1461 26993.43891    91.26703    89.94635     2.20276
      1462 27015.03366    87.31318    86.44937     2.27180
      1463 27036.64568    85.75761    84.62872     2.30592
      1464 27058.27500    84.90603    85.86871     2.26988
      1465 27079.92162    83.00046    84.45516     2.29504
      1466 27101.58556    80.32426    81.69951     2.35336
      1467 27123.26683    81.79107    82.49409     2.32620
      1468 27144.96544    92.57320    93.77791     2.07580
      1469 27166.68141   110.10341   110.14844     1.79580
      1470 27188.41476   121.21517   123.21364     1.61863
      1471 27210.16549   120.42167   122.27630     1.62256
      1472 27231.93362   117.32397   119.89066     1.64382
      1473 27253.71917   121.17582   124.20337     1.58593
      1474 27275.52214   139.24487   141.02771     1.40920
      1475 27297.34256   167.12120   164.61568     1.21943
      1476 27319.18044   179.87409   177.55846     1.13309
      1477 27341.03578   164.05568   166.47461     1.19729
      1478 27362.90861   133.32346   133.55055     1.45613
      1479 27384.79894   104.77764   104.32633     1.80505
      1480 27406.70677    86.03659    84.25273     2.16206
      1481 27428.63214    76.57341    76.03364     2.34950
      1482 27450.57505    73.90925    75.19760     2.36434
      1483 27472.53551    77.14298    77.62754     2.29592
      1484 27494.51353    86.58629    87.21603     2.07424
      1485 27516.50914   100.25342   101.13778     1.81927
      1486 27538.52235   111.44176   112.04491     1.65565
      1487 27560.55317   113.26842   111.84025     1.64959
      1488 27582.60161   103.90760   102.86359     1.76505
      1489 27604.66769    90.99728    91.13614     1.94942
      1490 27626.75143    82.72258    84.02474     2.07939
      1491 27648.85283    84.71154    85.89007     2.03293
      1492 27670.97191   102.28881   105.63975     1.69521
      1493 27693.10869   133.65509   134.33791     1.36577
      1494 27715.26318   157.54797   158.96217     1.16887
      1495 27737.43539   152.36558   151.98624     1.21317
      1496 27759.62533   127.83550   126.82995     1.42205
      1497 27781.83303   104.02827   102.85330     1.70233
      1498 27804.05850    91.44093    90.54572     1.88903
      1499 27826.30175    91.30715    91.11614     1.86637
      1500 27848.56279    96.97988    99.35097     1.72110
      1501 27870.84164    96.73067    99.88532     1.70109
      1502 27893.13831    87.93448    88.15482     1.87814
      1503 27915.45282    77.73275    77.05072     2.08702
      1504 27937.78519    71.14839    69.73157     2.25321
      1505 27960.13541    68.68627    66.87634     2.32537
      1506 27982.50352    68.93902    67.35755     2.31222
      1507 28004.88953    69.95217    69.36480     2.26053
      1508 28027.29344    70.24663    70.20617     2.23981
      1509 28049.71527    70.70402    71.27138     2.21107
      1510 28072.15504    73.23194    74.20627     2.13470
      1511 28094.61277    78.60286    80.29344     1.99298
      1512 28117.08846    86.15881    86.01261     1.87265
      1513 28139.58213    92.31612    91.15870     1.77258
      1514 28162.09379    92.06839    89.86899     1.78485
      1515 28184.62347    85.60642    84.94828     1.86501
      1516 28207.17117    77.47457    77.65181     2.00587
      1517 28229.73691    71.41169    71.33568     2.14510
      1518 28252.32069    68.27667    69.40666     2.18435
      1519 28274.92255    67.38709    68.35816     2.19991
      1520 28297.54249    68.14654    67.91558     2.20064
      1521 28320.18052    71.19780    71.62171     2.09879
      1522 28342.83667    77.33512    78.11514     1.94715
      1523 28365.51094    85.29778    84.90438     1.80956
      1524 28388.20335    91.55912    91.51239     1.69163
      1525 28410.91391    92.15359    91.40391     1.68668
      1526 28433.64264    86.11232    87.01423     1.75228
      1527 28456.38955    77.73608    77.71262     1.92128
      1528 28479.15467    71.29265    71.56889     2.05274
      1529 28501.93799    68.02955    68.67442     2.12159
      1530 28524.73954    67.98943    69.94039     2.08830
      1531 28547.55933    72.35431    73.53780     2.00047
      1532 28570.39738    82.78344    83.65534     1.79091
      1533 28593.25370    96.30597    97.78329     1.56221
      1534 28616.12830   102.92003   104.50733     1.47049
      1535 28639.02120    98.20230    97.90563     1.55272
      1536 28661.93242    89.01435    88.43746     1.69133
      1537 28684.86197    81.40725    79.45000     1.84931
      1538 28707.80985    76.17075    74.00932     1.95989
      1539 28730.77610    72.55728    70.24465     2.04450
      1540 28753.76072    70.19434    69.71169     2.05695
      1541 28776.76373    68.61701    68.00655     2.10010
      1542 28799.78514    67.85324    66.66651     2.13477
      1543 28822.82497    68.59215    69.50002     2.06322
      1544 28845.88323    72.80921    73.58987     1.96800
      1545 28868.95994    84.55936    85.58025     1.73349
      1546 28892.05511   106.63311   109.24179     1.40384
      1547 28915.16875   131.71194   132.80550     1.18015
      1548 28938.30088   141.95393   143.35648     1.10140
      1549 28961.45153   134.48999   136.02978     1.15473
      1550 28984.62069   122.26186   122.45774     1.26911
      1551 29007.80838   112.31856   113.04895     1.36297
      1552 29031.01463   108.63099   109.37008     1.40338
      1553 29054.23944   112.97270   109.91334     1.39692
      1554 29077.48283   117.21188   114.29557     1.34912
      1555 29100.74482   111.84246   109.00643     1.40659
      1556 29124.02542    99.65811    97.73721     1.54842
      1557 29147.32464    88.81640    87.22271     1.71066
      1558 29170.64250    82.41010    81.77247     1.81169
      1559 29193.97901    78.37467    76.53930     1.92121
      1560 29217.33419    75.23455    75.63291     1.94622
      1561 29240.70806    72.81261    73.34760     2.00112
      1562 29264.10063    71.47245    72.73010     2.01607
      1563 29287.51191    73.17819    73.99368     1.98492
      1564 29310.94192    80.33794    80.31200     1.85035
      1565 29334.39067    91.58425    91.42350     1.65577
      1566 29357.85818    98.46117    96.54102     1.57977
      1567 29381.34447    94.14091    92.57736     1.63832
      1568 29404.84954    83.59021    82.16397     1.81419
      1569 29428.37342    74.27097    73.50865     1.99210
      1570 29451.91612    68.74884    68.07929     2.12314
      1571 29475.47766    66.11082    65.14162     2.20337
      1572 29499.05804    64.95622    64.97372     2.21157
      1573 29522.65728    64.51441    63.34815     2.26116
      1574 29546.27541    64.64171    64.71802     2.22666
      1575 29569.91243    65.67508    65.48275     2.20966
      1576 29593.56836    67.90173    66.23736     2.19277
      1577 29617.24322    70.67744    70.60949     2.08227
      1578 29640.93701    72.37643    72.84623     2.02914
      1579 29664.64976    72.65439    72.38644     2.03869
      1580 29688.38148    73.08657    72.42006     2.03651
      1581 29712.13218    74.88228    76.32248     1.94763
      1582 29735.90189    79.20330    79.51730     1.87929
      1583 29759.69061    87.08630    86.17807     1.75236
      1584 29783.49836    96.94362    97.13344     1.57887
      1585 29807.32516   102.87479    99.95720     1.53894
      1586 29831.17102    99.70300    97.87740     1.56635
      1587 29855.03596    90.72710    88.11461     1.71347
      1588 29878.91999    81.62978    79.74191     1.86466
      1589 29902.82312    75.26726    73.89471     1.98863
      1590 29926.74538    71.50173    71.73324     2.04002
      1591 29950.68678    69.11163    69.00096     2.10801
      1592 29974.64733    67.69378    68.40337     2.12317
      1593 29998.62705    67.50062    68.01114     2.13076
      1594 30022.62595    68.72650    69.27328     2.09445
      1595 30046.64405    70.90370    72.62541     2.00975
      1596 30070.68136    73.22949    73.30116     1.98914
      1597 30094.73791    75.99960    75.95751     1.92462
      1598 30118.81370    80.44714    80.53458     1.82635
      1599 30142.90875    85.95687    84.81672     1.74291
      1600 30167.02308    89.64738    88.59541     1.67453
      1601 30191.15670    91.44275    91.59186     1.62273
      1602 30215.30962    95.08981    95.94037     1.55491
      1603 30239.48187   100.94267    99.87130     1.49873
      1604 30263.67345   105.44160   103.82389     1.44727
      1605 30287.88439   106.96604   104.12893     1.44226
      1606 30312.11470   105.07931   102.97408     1.45413
      1607 30336.36439   101.86819    99.71171     1.49236
      1608 30360.63348    98.63822    98.70479     1.50159
      1609 30384.92199    93.70517    93.69034     1.56662
      1610 30409.22993    89.16840    89.44817     1.62628
      1611 30433.55731    90.34502    89.32317     1.62464
      1612 30457.90416    99.09182    98.18254     1.49389
      1613 30482.27048   110.33447   109.65567     1.35334
      1614 30506.65630   118.90860   118.75684     1.25884
      1615 30531.06162   130.57574   129.92246     1.15959
      1616 30555.48647   150.35995   148.26286     1.02730
      1617 30579.93086   164.99714   161.17691     0.95000
      1618 30604.39481   157.39877   154.68443     0.98408
      1619 30628.87832   135.06068   134.85152     1.11134
      1620 30653.38142   115.60236   114.50642     1.28224
      1621 30677.90413   109.70213   112.45658     1.29911
      1622 30702.44645   122.39141   122.52692     1.20123
      1623 30727.00841   149.93190   151.61043     0.98943
      1624 30751.59002   171.39028   170.66409     0.88569
      1625 30776.19129   164.74906   168.75135     0.89239
      1626 30800.81224   136.91479   138.19057     1.06660
      1627 30825.45289   108.41333   107.35996     1.32946
      1628 30850.11325    90.36764    88.37859     1.56733
      1629 30874.79334    82.97691    82.57978     1.65694
      1630 30899.49318    81.74606    79.91191     1.70153
      1631 30924.21277    81.51276    80.51820     1.68925
      1632 30948.95214    80.18576    79.77351     1.70084
      1633 30973.71131    80.51540    80.32226     1.68919
      1634 30998.49028    86.50451    86.49782     1.58371
      1635 31023.28907    97.82409    97.64861     1.42286
      1636 31048.10770   106.43574   107.85937     1.29987
      1637 31072.94618   104.34486   106.05567     1.31438
      1638 31097.80454    95.78680    97.38021     1.41198
      1639 31122.68279    89.91477    90.10805     1.50635
      1640 31147.58093    89.68103    89.52698     1.51066
      1641 31172.49900    90.28119    89.65434     1.50348
      1642 31197.43700    86.56944    86.68711     1.54141
      1643 31222.39495    79.72739    78.98454     1.66147
      1644 31247.37286    73.46229    73.20067     1.76696
      1645 31272.37076    69.51127    68.88795     1.85710
      1646 31297.38866    67.66744    68.30816     1.86878
      1647 31322.42657    67.26939    67.65232     1.87991
      1648 31347.48451    67.87249    68.86273     1.84621
      1649 31372.56250    69.04901    70.07568     1.81253
      1650 31397.66055    70.29895    69.16887     1.82558
      1651 31422.77867    71.40947    71.84120     1.76511
      1652 31447.91690    72.60922    73.02814     1.73809
      1653 31473.07523    74.47744    75.84103     1.68119
      1654 31498.25369    77.55908    78.61381     1.62789
      1655 31523.45229    82.87700    83.53907     1.54220
      1656 31548.67106    94.83988    96.14445     1.36326
      1657 31573.90999   120.67364   123.05686     1.09427
      1658 31599.16912   159.91462   162.49408     0.84895
      1659 31624.44846   192.59104   195.82708     0.71319
      1660 31649.74801   191.68554   194.30021     0.71694
      1661 31675.06781   159.96130   159.56311     0.85787
      1662 31700.40787   122.61969   119.87287     1.10782
      1663 31725.76819    96.25168    92.42152     1.38676
      1664 31751.14881    82.99732    82.61970     1.52112
      1665 31776.54973    79.39563    77.64860     1.59751
      1666 31801.97097    82.91420    81.66802     1.52708
      1667 31827.41254    91.91587    92.06155     1.37682
      1668 31852.87447   102.50881   102.05453     1.25779
      1669 31878.35677   107.43549   105.31408     1.22152
      1670 31903.85946   103.21096   101.04605     1.26271
      1671 31929.38255    94.76758    96.20206     1.31251
      1672 31954.92605    88.49706    89.58338     1.38876
      1673 31980.48999    86.00290    85.58060     1.43677
      1674 32006.07439    85.26388    85.06390     1.43913
      1675 32031.67924    84.53875    83.78065     1.45484
      1676 32057.30459    82.69891    80.22754     1.50655
      1677 32082.95043    80.60483    79.69521     1.51234
      1678 32108.61679    81.22115    82.29213     1.46898
      1679 32134.30369    87.41895    87.39829     1.39155
      1680 32160.01113   100.69771   100.28855     1.23161
      1681 32185.73914   120.04898   121.85699     1.03401
      1682 32211.48773   139.15883   142.36879     0.89633
      1683 32237.25692   147.97589   150.85279     0.84775
      1684 32263.04672   145.46385   145.01003     0.87549
      1685 32288.85716   140.10614   137.17542     0.91727
      1686 32314.68825   133.74116   131.61627     0.94892
      1687 32340.54000   122.48436   117.95812     1.04231
      1688 32366.41243   108.16548   105.94297     1.14069
      1689 32392.30556    95.79955    93.97460     1.25961
      1690 32418.21940    89.16996    88.39440     1.32125
      1691 32444.15398    90.73780    90.32405     1.29170
      1692 32470.10930   100.94108   100.40084     1.17569
      1693 32496.08539   115.90016   117.13240     1.02560
      1694 32522.08226   127.13644   128.58963     0.94245
      1695 32548.09992   127.12776   129.23310     0.93638
      1696 32574.13840   119.09465   123.33848     0.97443
      1697 32600.19772   112.72962   117.03039     1.01975
      1698 32626.27787   114.09599   118.34315     1.00896
      1699 32652.37890   123.84212   129.01658     0.93311
      1700 32678.50080   135.52598   137.49932     0.87963
      1701 32704.64360   135.78490   136.59959     0.88288
      1702 32730.80731   120.81708   120.75938     0.98328
      1703 32756.99196   100.75704   102.62997     1.13070
      1704 32783.19755    84.97103    84.12803     1.33493
      1705 32809.42411    75.80890    76.98962     1.43094
      1706 32835.67165    71.55273    70.41332     1.53438
      1707 32861.94019    70.25828    70.26425     1.53260
      1708 32888.22974    70.88770    70.80704     1.51824
      1709 32914.54032    72.69964    72.32705     1.48582
      1710 32940.87196    74.50900    76.44381     1.41344
      1711 32967.22465    74.82334    75.77619     1.41902
      1712 32993.59843    73.74802    73.87866     1.44654
      1713 33019.99331    73.19581    72.35156     1.47086
      1714 33046.40931    74.78260    73.78187     1.44709
      1715 33072.84643    78.50249    78.16684     1.37806
      1716 33099.30471    82.83366    82.34390     1.31616
      1717 33125.78416    86.96601    86.35325     1.26057
      1718 33152.28478    91.48017    92.32709     1.18696
      1719 33178.80661    94.53862    93.49971     1.17002
      1720 33205.34966    92.64682    91.98268     1.18237
      1721 33231.91394    86.74041    86.33443     1.24397
      1722 33258.49947    81.36803    81.13024     1.30793
      1723 33285.10627    80.40237    79.96418     1.32245
      1724 33311.73435    86.31823    85.96551     1.24326
      1725 33338.38374   100.44530    99.76040     1.09268
      1726 33365.05445   121.85689   119.94764     0.92723
      1727 33391.74649   147.21361   147.62702     0.76706
      1728 33418.45989   171.46290   172.85569     0.66191
      1729 33445.19465   188.52461   192.43731     0.59769
      1730 33471.95081   191.58176   196.32132     0.58503
      1731 33498.72837   174.09522   176.98545     0.64197
      1732 33525.52735   144.05767   143.66775     0.77418
      1733 33552.34778   117.67688   114.72653     0.94354
      1734 33579.18965   105.34453    99.21168     1.06814
      1735 33606.05301   109.90977   107.28209     0.99604
      1736 33632.93785   128.90574   125.52161     0.86571
      1737 33659.84420   154.11684   153.06992     0.72290
      1738 33686.77207   170.47241   169.52786     0.65722
      1739 33713.72149   165.05669   164.22184     0.67512
      1740 33740.69247   145.32491   142.80947     0.76473
      1741 33767.68502   131.74382   131.61637     0.82103
      1742 33794.69917   140.46144   140.38259     0.77313
      1743 33821.73493   174.31043   173.61736     0.63581
      1744 33848.79232   216.55726   213.63191     0.52349
      1745 33875.87135   234.92794   232.41183     0.48267
      1746 33902.97205   212.08965   208.29475     0.53338
      1747 33930.09443   166.46107   164.78310     0.66040
      1748 33957.23850   124.32954   122.58926     0.85984
      1749 33984.40429    97.04658    95.35796     1.06806
      1750 34011.59182    82.90289    81.66163     1.21574
      1751 34038.80109    76.64689    76.14726     1.28655
      1752 34066.03213    74.90228    75.28573     1.29611
      1753 34093.28496    77.08186    79.96928     1.22827
      1754 34120.55958    84.38947    86.45914     1.14543
      1755 34147.85603    97.01518    98.92052     1.01655
      1756 34175.17432   110.24798   109.15725     0.92948
      1757 34202.51446   115.22725   112.59334     0.90176
      1758 34229.87647   109.93469   108.41371     0.93034
      1759 34257.26037   102.20818   102.58506     0.97583
      1760 34284.66618    99.36537    98.87406     1.00770
      1761 34312.09391   101.80005   100.82052     0.99018
      1762 34339.54359   105.10651   105.45169     0.95035
      1763 34367.01522   106.86559   107.80278     0.92969
      1764 34394.50883   107.39527   108.06381     0.92533
      1765 34422.02444   106.43183   107.94965     0.92423
      1766 34449.56206   101.51310   102.56325     0.96390
      1767 34477.12171    92.53045    93.82148     1.03790
      1768 34504.70341    82.82200    82.70293     1.15085
      1769 34532.30717    75.38666    75.30076     1.23820
      1770 34559.93301    70.97338    69.98034     1.30732
      1771 34587.58096    68.94885    68.35487     1.32553
      1772 34615.25103    68.46050    68.55167     1.31617
      1773 34642.94323    68.88470    68.76555     1.30679
      1774 34670.65758    69.40762    68.95987     1.29840
      1775 34698.39411    69.24341    68.87998     1.29588
      1776 34726.15282    68.38703    67.26155     1.31958
      1777 34753.93374    67.41966    65.88932     1.34182
      1778 34781.73689    66.81875    66.90736     1.32569
      1779 34809.56228    66.88060    67.82997     1.31058
      1780 34837.40993    68.18877    68.70539     1.29594
      1781 34865.27986    71.30107    71.88428     1.24754
      1782 34893.17208    76.10266    77.38928     1.17249
      1783 34921.08662    80.74245    80.31454     1.13524
      1784 34949.02349    82.38263    82.84573     1.10378
      1785 34976.98271    80.48792    81.88010     1.11137
      1786 35004.96429    77.40430    78.44650     1.14724
      1787 35032.96827    75.09208    75.98662     1.17257
      1788 35060.99464    73.34668    76.00739     1.16759
      1789 35089.04344    71.36007    72.93704     1.20470
      1790 35117.11467    69.26082    68.96407     1.25960
      1791 35145.20836    67.56095    69.26625     1.25436
      1792 35173.32453    66.52330    66.77561     1.29099
      1793 35201.46319    66.01825    66.06489     1.30106
      1794 35229.62436    65.82584    66.43884     1.29342
      1795 35257.80806    65.78564    65.12376     1.31214
      1796 35286.01431    65.82121    66.24869     1.29240
      1797 35314.24312    65.93462    65.88782     1.29574
      1798 35342.49451    66.15799    65.23829     1.30357
      1799 35370.76851    66.56138    65.81328     1.29299
      1800 35399.06512    67.43805    65.47445     1.29895
      1801 35427.38437    69.68441    69.19028     1.24379
      1802 35455.72628    74.97125    73.97938     1.17823
      1803 35484.09086    84.86177    86.27192     1.03597
      1804 35512.47814    98.31756    99.72349     0.91406
      1805 35540.88812   109.74756   113.21843     0.81690
      1806 35569.32083   113.10583   114.38231     0.80793
      1807 35597.77629   109.54603   110.66099     0.83016
      1808 35626.25451   103.71337   101.76706     0.89136
      1809 35654.75551    97.06793    94.64850     0.94752
      1810 35683.27931    90.33710    89.18560     0.99575
      1811 35711.82594    86.04553    83.83903     1.04868
      1812 35740.39540    86.25888    87.00415     1.01668
      1813 35768.98771    90.69337    91.53694     0.97348
      1814 35797.60290    96.83450    99.14581     0.90825
      1815 35826.24099   100.84702   103.13589     0.87650
      1816 35854.90198    99.82728    98.52245     0.90969
      1817 35883.58590    94.46113    94.78073     0.93740
      1818 35912.29277    87.83848    88.98574     0.98551
      1819 35941.02260    84.14595    85.69352     1.01431
      1820 35969.77542    87.02589    89.34166     0.97750
      1821 35998.55124    97.66231    99.50227     0.89061
      1822 36027.35008   112.24778   116.43573     0.77591
      1823 36056.17196   121.43553   123.07174     0.73744
      1824 36085.01690   118.16044   117.98574     0.76296
      1825 36113.88491   105.70900   103.90183     0.84883
      1826 36142.77602    91.82454    90.74913     0.94844
      1827 36171.69024    81.39310    79.19822     1.05786
      1828 36200.62760    75.31663    74.31828     1.11083
      1829 36229.58810    72.52501    71.13449     1.14965
      1830 36258.57177    72.21418    72.64409     1.13009
      1831 36287.57863    74.64962    74.39442     1.10899
      1832 36316.60869    80.23752    82.33272     1.01991
      1833 36345.66198    87.63286    88.14017     0.96192
      1834 36374.73851    92.72492    89.11390     0.95064
      1835 36403.83830    91.80274    90.33176     0.93653
      1836 36432.96137    86.21729    84.60925     0.98572
      1837 36462.10774    80.04420    80.61062     1.02135
      1838 36491.27742    75.94479    73.82442     1.09224
      1839 36520.47044    74.65525    72.77338     1.09895
      1840 36549.68682    76.95339    76.50028     1.04983
      1841 36578.92657    85.65255    86.14894     0.94788
      1842 36608.18971   104.36694   105.66387     0.79492
      1843 36637.47626   132.34720   134.54627     0.64226
      1844 36666.78624   158.78440   159.39913     0.55080
      1845 36696.11967   166.93664   162.88009     0.53932
      1846 36725.47657   154.12234   150.10893     0.58004
      1847 36754.85695   133.89876   133.31645     0.64426
      1848 36784.26084   118.11446   118.05680     0.71614
      1849 36813.68824   108.04226   107.64669     0.77498
      1850 36843.13919    99.40519    98.13959     0.83760
      1851 36872.61371    90.79886    92.02632     0.88213
      1852 36902.11180    83.55559    83.76089     0.95111
      1853 36931.63349    78.60716    80.13507     0.98286
      1854 36961.17879    76.17730    76.23101     1.02069
      1855 36990.74774    76.91113    76.35466     1.01595
      1856 37020.34033    81.76337    84.24150     0.93355
      1857 37049.95661    90.33433    91.78215     0.86607
      1858 37079.59657    98.90875    99.24450     0.80757
      1859 37109.26025   101.54947   101.98265     0.78631
      1860 37138.94766    96.32874    93.97529     0.84076
      1861 37168.65882    87.26677    84.61697     0.91657
      1862 37198.39374    79.05408    77.49885     0.98406
      1863 37228.15246    73.72637    72.27671     1.03961
      1864 37257.93498    71.03208    71.12877     1.04979
      1865 37287.74133    70.02581    69.25929     1.06877
      1866 37317.57152    70.08506    68.35004     1.07648
      1867 37347.42558    71.12591    69.23088     1.06264
      1868 37377.30352    73.39561    71.76150     1.02988
      1869 37407.20536    77.11687    77.14815     0.96876
      1870 37437.13113    82.39237    84.07929     0.90087
      1871 37467.08083    89.94996    90.03860     0.84970
      1872 37497.05449   102.23510   103.53007     0.75307
      1873 37527.05214   121.46567   120.25801     0.65937
      1874 37557.07378   145.06291   144.04397     0.55981
      1875 37587.11944   165.16150   162.81507     0.49931
      1876 37617.18913   175.35201   172.40234     0.47208
      1877 37647.28289   175.26763   173.91739     0.46658
      1878 37677.40071   169.48979   170.31382     0.47399
      1879 37707.54263   167.04033   165.76293     0.48439
      1880 37737.70867   181.91543   182.36451     0.44272
      1881 37767.89883   221.75142   226.07626     0.36197
      1882 37798.11315   272.15466   272.77846     0.30271
      1883 37828.35164   297.40554   296.13214     0.27936
      1884 37858.61432   276.08921   275.85978     0.29797
      1885 37888.90122   227.14826   226.95795     0.35690
      1886 37919.21234   180.82742   181.79244     0.43710
      1887 37949.54771   149.93508   149.05585     0.52249
      1888 37979.90735   129.25875   129.27612     0.59244
      1889 38010.29127   111.57613   110.35366     0.67969
      1890 38040.69950    96.05297    94.68107     0.77367
      1891 38071.13206    84.37123    83.38553     0.85852
      1892 38101.58897    77.02415    75.36503     0.92949
      1893 38132.07024    73.00032    69.97803     0.98245
      1894 38162.57590    70.93755    68.79547     0.99146
      1895 38193.10596    69.92986    68.41440     0.99149
      1896 38223.66044    69.58703    67.28691     1.00088
      1897 38254.23937    69.73903    69.59002     0.97147
      1898 38284.84276    70.19471    68.84156     0.97847
      1899 38315.47064    70.57803    69.74822     0.96786
      1900 38346.12301    70.50785    67.88097     0.98855
      1901 38376.79991    70.00454    69.02846     0.97364
      1902 38407.50135    69.43084    68.09446     0.98180
      1903 38438.22735    69.15624    68.86871     0.96988
      1904 38468.97793    69.53806    67.82756     0.97827
      1905 38499.75312    71.21302    69.62631     0.95336
      1906 38530.55292    75.28753    76.18726     0.88060
      1907 38561.37736    82.76679    83.69218     0.80955
      1908 38592.22646    92.99483    93.83912     0.73164
      1909 38623.10024   102.32756   100.92197     0.68543
      1910 38653.99872   106.01024   107.49702     0.64776
      1911 38684.92192   103.62115   104.22189     0.66390
      1912 38715.86986    98.50684    99.90801     0.68669
      1913 38746.84256    93.14187    91.33510     0.73913
      1914 38777.84003    88.20416    88.87509     0.75437
      1915 38808.86230    84.38361    85.27030     0.77932
      1916 38839.90939    83.84232    85.68597     0.77449
      1917 38870.98132    90.53130    91.28091     0.73180
      1918 38902.07811   109.72356   109.26923     0.62426
      1919 38933.19977   144.38322   147.05549     0.47784
      1920 38964.34633   188.78006   188.99875     0.37880
      1921 38995.51781   223.74823   219.48691     0.32861
      1922 39026.71422   228.92372   225.23925     0.31950
      1923 39057.93559   204.85930   205.77266     0.34593
      1924 39089.18194   170.72942   173.09490     0.40337
      1925 39120.45328   144.62799   147.32516     0.46393
      1926 39151.74965   132.29770   133.55521     0.50332
      1927 39183.07105   127.81611   124.42198     0.53290
      1928 39214.41750   121.35218   118.09868     0.55562
      1929 39245.78904   109.35827   107.09954     0.60321
      1930 39277.18567    95.51142    95.87423     0.66201
      1931 39308.60742    84.18019    85.82712     0.72547
      1932 39340.05430    77.02179    77.53927     0.78754
      1933 39371.52635    73.41822    74.71715     0.81013
      1934 39403.02357    72.13950    72.19940     0.83099
      1935 39434.54599    72.34916    72.56407     0.82552
      1936 39466.09362    73.57387    73.96667     0.81102
      1937 39497.66650    75.16533    75.33216     0.79826
      1938 39529.26463    76.08663    75.75744     0.79477
      1939 39560.88804    75.62908    75.53215     0.79651
      1940 39592.53675    74.43457    75.31613     0.79726
      1941 39624.21078    73.80119    75.51522     0.79347
      1942 39655.91015    74.84153    76.13388     0.78546
      1943 39687.63488    78.16191    82.00197     0.73532
      1944 39719.38499    83.98459    90.59700     0.67334
      1945 39751.16050    92.91596    96.89645     0.63327
      1946 39782.96142   107.35518   110.94877     0.56087
      1947 39814.78779   131.00465   135.74957     0.46735
      1948 39846.63962   162.88373   163.91632     0.39282
      1949 39878.51694   191.29608   189.01460     0.34379
      1950 39910.41975   198.97199   196.69099     0.33043
      1951 39942.34808   182.19491   175.32868     0.36609
      1952 39974.30196   153.09018   151.23220     0.41762
      1953 40006.28140   124.70414   126.57599     0.48882
      1954 40038.28643   103.88768   104.00805     0.57973
      1955 40070.31706    91.19909    94.01108     0.63110
      1956 40102.37331    83.75700    83.97776     0.69211
      1957 40134.45521    78.68312    79.66742     0.72019
      1958 40166.56278    74.68929    76.10686     0.74480
      1959 40198.69603    71.69993    73.14547     0.76664
      1960 40230.85498    69.72719    70.87175     0.78370
      1961 40263.03967    68.56390    71.97861     0.76981
      1962 40295.25010    67.94024    70.20743     0.77960
      1963 40327.48630    67.61613    68.17633     0.79076
      1964 40359.74829    67.42533    68.51502     0.78023
      1965 40392.03609    67.31362    67.34163     0.78534
      1966 40424.34971    67.28537    65.12429     0.80292
      1967 40456.68919    67.32346    68.89273     0.76595
      1968 40489.05455    67.45737    70.40425     0.75119
      1969 40521.44579    67.69725    69.33901     0.75801
      1970 40553.86295    68.18585    68.02935     0.76598
      1971 40586.30604    69.36663    71.04729     0.73565
      1972 40618.77508    72.27989    73.91663     0.70883
      1973 40651.27010    78.63330    79.82877     0.66309
      1974 40683.79112    89.88032    92.56533     0.58432
      1975 40716.33815   105.07697   107.83006     0.51134
      1976 40748.91122   118.95590   121.73980     0.45836
      1977 40781.51035   123.66282   123.48818     0.45052
      1978 40814.13556   116.40175   113.34503     0.48313
      1979 40846.78687   102.37208   100.18493     0.53475
      1980 40879.46430    88.47527    89.08220     0.58862
      1981 40912.16787    78.53098    79.49220     0.64624
      1982 40944.89760    72.81973    73.82170     0.68630
      1983 40977.65352    69.98122    69.71130     0.71766
      1984 41010.43564    68.66907    70.27419     0.71057
      1985 41043.24399    68.06694    69.72904     0.71121
      1986 41076.07859    67.77813    67.23044     0.72726
      1987 41108.93945    67.57297    67.49793     0.72073
      1988 41141.82660    67.50768    69.79737     0.69930
      1989 41174.74006    67.52347    65.94241     0.73082
      1990 41207.67985    67.60051    65.41774     0.73524
      1991 41240.64600    67.74584    66.37306     0.72492
      1992 41273.63852    67.96174    67.19304     0.71353
      1993 41306.65743    68.29269    68.84372     0.69392
      1994 41339.70275    68.83650    68.57923     0.68971
      1995 41372.77451    69.90187    68.23863     0.68650
      1996 41405.87273    72.29775    73.13995     0.64536
      1997 41438.99743    77.60126    77.60682     0.61229
      1998 41472.14863    87.78695    88.72651     0.54673
      1999 41505.32635   103.70882   105.35068     0.47172
      2000 41538.53061   122.83680   120.17626     0.41972
      2001 41571.76143   138.30117   136.02981     0.37531
      2002 41605.01884   142.99398   143.26851     0.35735
      2003 41638.30286   136.39113   138.27828     0.36765
      2004 41671.61350   125.40333   126.15425     0.39738
      2005 41704.95079   117.81234   116.55710     0.42450
      2006 41738.31475   116.01864   117.78971     0.41946
      2007 41771.70540   116.01881   119.90265     0.41168
      2008 41805.12277   111.98872   112.39943     0.43364
      2009 41838.56687   102.87532   103.75694     0.46229
      2010 41872.03772    92.17344    94.53914     0.49800
      2011 41905.53535    83.46931    85.07524     0.54154
      2012 41939.05978    78.32475    80.00868     0.56695
      2013 41972.61103    76.68337    75.16444     0.59347
      2014 42006.18912    77.95496    77.79977     0.57435
      2015 42039.79407    81.86745    83.47167     0.53949
      2016 42073.42590    89.26810    88.37106     0.51225
      2017 42107.08464   102.71062   104.12708     0.44483
      2018 42140.77031   126.44571   126.01650     0.37669
      2019 42174.48293   162.64484   162.30279     0.30066
      2020 42208.22251   204.67152   200.96290     0.24714
      2021 42241.98909   234.19821   228.77436     0.21869
      2022 42275.78268   232.79653   223.48951     0.22286
      2023 42309.60331   202.10548   196.09209     0.25072
      2024 42343.45099   160.26596   156.50902     0.30678
      2025 42377.32575   123.99813   122.12044     0.38086
      2026 42411.22761   100.52320   100.90759     0.44738
      2027 42445.15659    89.31978    90.68311     0.48827
      2028 42479.11272    87.02988    92.01750     0.48102
      2029 42513.09601    90.55212    90.81381     0.48489
      2030 42547.10649    97.48046   100.51161     0.44414
      2031 42581.14417   105.75972   107.35685     0.41934
      2032 42615.20909   114.07593   116.89567     0.38891
      2033 42649.30125   121.82682   121.52673     0.37475
      2034 42683.42070   130.11075   130.86069     0.34986
      2035 42717.56743   141.55905   144.14456     0.31993
      2036 42751.74149   155.20212   162.24539     0.28657
      2037 42785.94288   163.51185   171.24494     0.27168
      2038 42820.17163   158.99166   163.44452     0.28191
      2039 42854.42777   144.04884   145.29794     0.31129
      2040 42888.71131   128.10006   128.34097     0.34463
      2041 42923.02228   118.48220   117.90638     0.36759
      2042 42957.36070   116.09494   114.80644     0.37260
      2043 42991.72659   116.65146   113.15453     0.37432
      2044 43026.11997   115.37897   109.92658     0.38179
      2045 43060.54087   110.17173   106.75333     0.39040
      2046 43094.98930   101.82748    99.37761     0.41423
      2047 43129.46529    93.38738    93.21501     0.43677
      2048 43163.96886    88.23166    89.30940     0.45169
      2049 43198.50004    89.36966    91.36409     0.44113
      2050 43233.05884    99.47642   106.13621     0.38672
      2051 43267.64528   119.72044   122.53190     0.34041
      2052 43302.25940   146.96276   153.30903     0.27887
      2053 43336.90121   171.61355   166.57979     0.25852
      2054 43371.57073   181.27807   174.27217     0.24771
      2055 43406.26799   172.27703   171.04940     0.25123
      2056 43440.99300   152.49895   151.09520     0.27992
      2057 43475.74579   131.39314   131.02132     0.31634
      2058 43510.52639   113.78527   119.15619     0.34217
      2059 43545.33481   101.41064   106.86847     0.37435
      2060 43580.17108    95.29844    98.66635     0.40011
      2061 43615.03522    96.38006    95.10225     0.41275
      2062 43649.92724   103.91282   103.15849     0.38503
      2063 43684.84719   114.28542   113.02151     0.35534
      2064 43719.79506   121.32806   123.47079     0.32836
      2065 43754.77090   120.67973   119.11120     0.33829
      2066 43789.77472   114.87763   116.30001     0.34516
      2067 43824.80654   111.31433   112.30076     0.35561
      2068 43859.86638   116.67503   118.64947     0.33893
      2069 43894.95428   132.63031   141.20506     0.29088
      2070 43930.07024   153.52757   162.80132     0.25614
      2071 43965.21429   167.54610   169.76621     0.24658
      2072 44000.38647   165.01229   166.30849     0.25111
      2073 44035.58678   147.78181   149.56016     0.27602
      2074 44070.81524   125.31593   125.94391     0.32118
      2075 44106.07190   106.15563   109.52419     0.36252
      2076 44141.35675    94.32290    97.22480     0.40110
      2077 44176.66984    89.61419    91.41794     0.42221
      2078 44212.01118    89.15329    86.86391     0.44040
      2079 44247.38078    89.20799    86.24719     0.44312
      2080 44282.77869    87.17815    85.56748     0.44609
      2081 44318.20491    83.05036    83.04915     0.45643
      2082 44353.65948    78.35601    79.48273     0.47148
      2083 44389.14240    74.48466    75.69305     0.48821
      2084 44424.65372    71.94936    67.76033     0.53069
      2085 44460.19344    70.63661    69.17386     0.52132
      2086 44495.76160    70.17919    68.81830     0.52391
      2087 44531.35820    70.24552    72.30517     0.50520
      2088 44566.98329    70.58985    71.48836     0.51071
      2089 44602.63688    71.06645    71.51003     0.51132
      2090 44638.31899    71.80810    72.71209     0.50520
      2091 44674.02964    73.47651    73.50495     0.50126
      2092 44709.76887    77.19359    78.15842     0.47714
      2093 44745.53668    83.73849    82.83077     0.45473
      2094 44781.33311    92.69770    89.05639     0.42775
      2095 44817.15818   101.38244   102.41072     0.37983
      2096 44853.01190   105.46823   102.05299     0.38019
      2097 44888.89431   102.57469   102.99255     0.37611
      2098 44924.80543    94.72432    91.24933     0.41457
      2099 44960.74527    85.74581    82.38350     0.44939
      2100 44996.71387    78.47955    77.28156     0.47242
      2101 45032.71124    73.80543    72.02672     0.49941
      2102 45068.73741    71.27694    66.68976     0.53090
      2103 45104.79240    70.06225    68.80377     0.51931
      2104 45140.87623    69.51047    68.85601     0.52032
      2105 45176.98893    69.30040    67.92216     0.52659
      2106 45213.13053    69.25465    67.41203     0.52909
      2107 45249.30103    69.30603    70.19697     0.51114
      2108 45285.50047    69.43785    68.41679     0.52069
      2109 45321.72887    69.66893    66.41776     0.53235
      2110 45357.98625    70.07388    69.48881     0.51348
      2111 45394.27264    70.92416    70.80133     0.50607
      2112 45430.58806    72.94178    73.27185     0.49235
      2113 45466.93253    77.19339    78.56171     0.46473
      2114 45503.30608    85.18529    87.68893     0.42306
      2115 45539.70872    97.67946    96.03859     0.39004
      2116 45576.14049   113.09026   110.82405     0.34347
      2117 45612.60140   126.50358   125.98760     0.30609
      2118 45649.09148   131.58637   127.91931     0.30106
      2119 45685.61076   126.21666   120.47856     0.31627
      2120 45722.15924   114.37882   113.77301     0.33110
      2121 45758.73697   101.48715   101.57820     0.36302
      2122 45795.34396    90.82041    88.40668     0.40581
      2123 45831.98024    83.31806    82.20939     0.42942
      2124 45868.64582    78.64517    77.27516     0.45096
      2125 45905.34074    76.10346    76.93393     0.45276
      2126 45942.06501    75.12797    73.02219     0.47233
      2127 45978.81866    75.54531    77.18784     0.45137
      2128 46015.60172    77.85956    78.78444     0.44291
      2129 46052.41420    83.57898    81.86202     0.42790
      2130 46089.25613    95.12258    95.43923     0.37555
      2131 46126.12754   114.59426   117.32779     0.31415
      2132 46163.02844   141.28653   147.11440     0.25721
      2133 46199.95886   169.81947   177.31103     0.21719
      2134 46236.91883   191.61024   200.14946     0.19402
      2135 46273.90836   202.87966   204.53437     0.18971
      2136 46310.92749   210.06140   213.85683     0.18144
      2137 46347.97623   221.36212   220.25242     0.17574
      2138 46385.05461   236.55815   232.35608     0.16639
      2139 46422.16266   245.09798   238.73844     0.16152
      2140 46459.30039   234.39521   222.14196     0.17212
      2141 46496.46783   203.99431   198.61322     0.19044
      2142 46533.66500   165.39382   163.24956     0.22721
      2143 46570.89193   130.71516   133.17031     0.27199
      2144 46608.14865   106.06841   110.71863     0.31886
      2145 46645.43516    91.67139    96.54072     0.35753
      2146 46682.75151    84.97219    90.44333     0.37640
      2147 46720.09771    83.63561    90.43494     0.37488
      2148 46757.47379    87.43665    91.44990     0.36960
      2149 46794.87977    98.83688   101.31847     0.33762
      2150 46832.31567   122.21704   125.03192     0.28087
      2151 46869.78153   160.84052   164.49705     0.21983
      2152 46907.27735   211.91219   217.58582     0.17015
      2153 46944.80317   262.45868   258.45209     0.14486
      2154 46982.35902   291.72170   285.92506     0.13167
      2155 47019.94490   285.90166   277.20613     0.13539
      2156 47057.56086   250.10822   244.24126     0.15217
      2157 47095.20691   200.98710   199.21722     0.18337
      2158 47132.88307   154.66699   155.71690     0.22877
      2159 47170.58938   120.06538   126.56410     0.27406
      2160 47208.32585    98.38572   103.18183     0.32591
      2161 47246.09251    86.73641    89.37028     0.36713
      2162 47283.88939    81.54307    83.78241     0.38655
      2163 47321.71650    80.19038    78.34986     0.40669
      2164 47359.57387    81.18526    81.22305     0.39265
      2165 47397.46153    83.69833    84.41985     0.37804
      2166 47435.37950    87.10918    87.26109     0.36631
      2167 47473.32780    90.57020    87.63677     0.36474
      2168 47511.30647    92.68076    92.52165     0.34960
      2169 47549.31551    92.19502    90.84088     0.35632
      2170 47587.35496    89.25587    86.17991     0.37326
      2171 47625.42485    85.19485    86.50044     0.37215
      2172 47663.52519    81.56609    78.96273     0.39990
      2173 47701.65601    79.47551    80.59006     0.39163
      2174 47739.81733    79.22974    79.55305     0.39390
      2175 47778.00919    80.36816    79.57626     0.39132
      2176 47816.23159    81.94084    78.02391     0.39399
      2177 47854.48458    82.75956    80.76931     0.37949
      2178 47892.76817    82.41750    76.39257     0.39293
      2179 47931.08238    81.90571    79.32627     0.37843
      2180 47969.42725    82.98759    82.63420     0.36436
      2181 48007.80279    88.01227    88.59779     0.34316
      2182 48046.20903    99.68615   102.90532     0.30244
      2183 48084.64600   119.54678   126.55909     0.25293
      2184 48123.11371   146.38918   151.80497     0.21512
      2185 48161.61221   175.01489   180.65306     0.18368
      2186 48200.14150   197.52836   200.59476     0.16650
      2187 48238.70161   209.29221   210.74683     0.15847
      2188 48277.29257   212.10983   221.68565     0.15065
      2189 48315.91440   207.97390   214.06759     0.15478
      2190 48354.56714   195.01362   196.19205     0.16673
      2191 48393.25079   172.52828   170.31223     0.18839
      2192 48431.96539   145.17699   146.04149     0.21507
      2193 48470.71096   119.45809   117.33105     0.25898
      2194 48509.48753    99.65298    97.98367     0.30137
      2195 48548.29512    86.65654    83.33607     0.34523
      2196 48587.13376    79.25935    75.33313     0.37640
      2197 48626.00346    75.45425    73.30071     0.38698
      2198 48664.90427    73.57582    72.92778     0.38988
      2199 48703.83619    72.63489    70.11431     0.40230
      2200 48742.79926    72.15268    69.97684     0.40285
      2201 48781.79350    71.97314    70.62983     0.39981
      2202 48820.81893    72.07726    72.72518     0.39054
      2203 48859.87559    72.51327    72.30906     0.39189
      2204 48898.96349    73.33584    70.62688     0.39888
      2205 48938.08266    74.47317    73.62272     0.38598
      2206 48977.23313    75.63996    74.82835     0.38036
      2207 49016.41491    76.38711    74.66819     0.37914
      2208 49055.62804    76.39960    74.16604     0.37868
      2209 49094.87255    75.80753    70.29642     0.39253
      2210 49134.14845    75.05761    71.69859     0.38512
      2211 49173.45576    74.62516    72.56720     0.38123
      2212 49212.79453    74.81065    77.26004     0.36307
      2213 49252.16476    75.79027    72.54245     0.38196
      2214 49291.56650    77.59613    77.26778     0.36303
      2215 49330.99975    80.35109    83.93523     0.33862
      2216 49370.46455    84.87218    91.70210     0.31351
      2217 49409.96092    93.46621   101.29436     0.28767
      2218 49449.48889   110.54543   116.04310     0.25599
      2219 49489.04848   141.42391   149.30315     0.20534
      2220 49528.63972   188.49490   193.08740     0.16286
      2221 49568.26263   246.17392   245.90189     0.13031
      2222 49607.91724   297.99869   293.27109     0.11044
      2223 49647.60357   321.34929   315.72625     0.10286
      2224 49687.32166   304.42511   297.00738     0.10873
      2225 49727.07152   257.46304   251.96460     0.12648
      2226 49766.85317   201.12103   201.85641     0.15469
      2227 49806.66665   151.89907   151.33026     0.19979
      2228 49846.51199   116.97010   123.10419     0.23883
      2229 49886.38920    95.88087   101.32709     0.28160
      2230 49926.29831    84.55026    89.21071     0.31307
      2231 49966.23935    78.84216    81.74582     0.33603
      2232 50006.21234    75.95555    80.19168     0.34056
      2233 50046.21731    74.45639    77.12139     0.34994
      2234 50086.25428    73.60596    73.50434     0.36138
      2235 50126.32329    73.09071    72.05573     0.36480
      2236 50166.42434    72.78730    72.34241     0.36177
      2237 50206.55748    72.66866    72.72363     0.35871
      2238 50246.72273    72.79957    68.44711     0.37439
      2239 50286.92011    73.40385    70.97639     0.36289
      2240 50327.14964    74.97860    76.31494     0.34213
      2241 50367.41136    78.34649    75.02247     0.34576
      2242 50407.70529    84.42981    82.44684     0.31937
      2243 50448.03146    93.59761    91.66858     0.29158
      2244 50488.38988   104.75854   100.45970     0.26918
      2245 50528.78059   114.84359   109.21425     0.25018
      2246 50569.20362   119.63281   115.59741     0.23797
      2247 50609.65898   116.80690   110.16905     0.24758
      2248 50650.14671   108.18397   100.01776     0.26827
      2249 50690.66683    97.73285    93.57518     0.28332
      2250 50731.21936    88.89605    87.82341     0.29794
      2251 50771.80434    83.65479    85.72163     0.30358
      2252 50812.42178    83.02591    84.23928     0.30809
      2253 50853.07172    88.00852    90.02611     0.29253
      2254 50893.75417    99.85157   102.76961     0.26262
      2255 50934.46918   119.02376   118.49357     0.23274
      2256 50975.21675   143.30746   144.60357     0.19539
      2257 51015.99693   166.40293   162.87458     0.17539
      2258 51056.80972   179.08217   173.72340     0.16506
      2259 51097.65517   175.14924   165.52027     0.17185
      2260 51138.53330   157.11512   152.89792     0.18380
      2261 51179.44412   133.24191   129.72883     0.21161
      2262 51220.38768   111.37419   110.83143     0.24155
      2263 51261.36399    95.85997    98.58003     0.26596
      2264 51302.37308    87.58782    88.97283     0.28874
      2265 51343.41498    85.29478    89.72398     0.28576
      2266 51384.48971    87.10743    88.90791     0.28679
      2267 51425.59730    90.80020    92.00725     0.27747
      2268 51466.73778    93.78432    96.27987     0.26594
      2269 51507.91117    93.95404    93.81752     0.27060
      2270 51549.11750    90.89510    88.91402     0.28152
      2271 51590.35679    85.91417    85.93385     0.28746
      2272 51631.62908    80.73608    78.48819     0.30654
      2273 51672.93438    76.53412    74.99905     0.31537
      2274 51714.27273    73.69725    72.23228     0.32346
      2275 51755.64415    72.04879    70.89761     0.32795
      2276 51797.04866    71.18745    66.45427     0.34517
      2277 51838.48630    70.76737    70.87698     0.32898
      2278 51879.95709    70.57303    71.67066     0.32659
      2279 51921.46106    70.50255    71.87512     0.32603
      2280 51962.99822    70.53030    72.28478     0.32398
      2281 52004.56862    70.69949    69.65221     0.33189
      2282 52046.17228    71.14888    71.32045     0.32346
      2283 52087.80922    72.15323    69.67470     0.32662
      2284 52129.47946    74.14400    76.32314     0.30152
      2285 52171.18305    77.48250    76.87632     0.29714
      2286 52212.91999    82.14389    80.89678     0.28354
      2287 52254.69033    87.48310    83.37583     0.27596
      2288 52296.49408    92.02015    88.67415     0.26237
      2289 52338.33128    93.97437    90.28646     0.25845
      2290 52380.20194    92.73817    92.62485     0.25298
      2291 52422.10610    89.48492    86.93451     0.26635
      2292 52464.04379    86.13301    87.72368     0.26447
      2293 52506.01502    84.07343    83.91707     0.27401
      2294 52548.01983    83.56465    87.28941     0.26520
      2295 52590.05825    83.79205    83.81825     0.27355
      2296 52632.13030    83.51064    89.52195     0.25840
      2297 52674.23600    82.08975    84.77569     0.26868
      2298 52716.37539    79.79241    82.28765     0.27330
      2299 52758.54849    77.36227    79.07587     0.28008
      2300 52800.75533    75.54586    77.22632     0.28348
      2301 52842.99593    74.89235    76.82583     0.28296
      2302 52885.27033    75.93816    75.60695     0.28498
      2303 52927.57855    79.49942    79.00801     0.27416
      2304 52969.92061    86.37700    83.71407     0.26104
      2305 53012.29655    96.93353    95.82035     0.23361
      2306 53054.70638   110.21129   108.24601     0.21101
      2307 53097.15015   123.32438   122.23590     0.19013
      2308 53139.62787   131.89057   126.78312     0.18377
      2309 53182.13957   132.49765   127.24236     0.18258
      2310 53224.68528   125.53896   123.92292     0.18615
      2311 53267.26503   114.38166   112.38866     0.20189
      2312 53309.87884   102.53062   102.10247     0.21887
      2313 53352.52675    92.28776    91.01443     0.24101
      2314 53395.20877    84.67478    81.73915     0.26355
      2315 53437.92493    79.78496    79.60147     0.27019
      2316 53480.67527    77.30578    79.80769     0.27042
      2317 53523.45981    76.89466    78.96737     0.27254
      2318 53566.27858    78.25007    80.59225     0.26653
      2319 53609.13161    80.95214    77.38133     0.27281
      2320 53652.01891    84.26257    83.90314     0.25331
      2321 53694.94053    87.09484    81.50403     0.25726
      2322 53737.89648    88.44409    83.84742     0.25011
      2323 53780.88680    88.31447    85.86268     0.24414
      2324 53823.91150    88.16015    83.54572     0.24825
      2325 53866.97063    90.36013    84.90773     0.24413
      2326 53910.06421    97.29551   100.06603     0.21332
      2327 53953.19226   110.27155   111.77892     0.19451
      2328 53996.35482   128.34638   127.05424     0.17487
      2329 54039.55190   147.50000   143.42933     0.15782
      2330 54082.78354   161.05708   159.83753     0.14347
      2331 54126.04977   162.86289   152.47236     0.14918
      2332 54169.35061   152.23277   146.59919     0.15367
      2333 54212.68609   134.30576   128.60122     0.17121
      2334 54256.05624   115.31243   110.62725     0.19381
      2335 54299.46108    99.84020    98.16651     0.21377
      2336 54342.90065    89.92974    90.85215     0.22754
      2337 54386.37497    85.85803    92.16431     0.22457
      2338 54429.88407    87.59220    93.37057     0.22191
      2339 54473.42798    95.78972   101.62619     0.20644
      2340 54517.00672   111.67217   120.93956     0.17762
      2341 54560.62033   135.70934   139.46268     0.15635
      2342 54604.26882   165.67095   164.23660     0.13467
      2343 54647.95224   195.24948   194.62487     0.11501
      2344 54691.67060   214.58345   207.69860     0.10783
      2345 54735.42394   215.11176   201.19738     0.11048
      2346 54779.21227   196.73775   185.54215     0.11850
      2347 54823.03564   167.53856   161.65123     0.13372
      2348 54866.89407   137.14881   136.66433     0.15462
      2349 54910.78759   112.13299   116.57821     0.17689
      2350 54954.71622    94.84380    97.25654     0.20558
      2351 54998.67999    84.46577    87.26940     0.22471
      2352 55042.67894    78.82861    81.32878     0.23776
      2353 55086.71308    75.88053    76.94562     0.24769
      2354 55130.78245    74.30975    75.61983     0.24961
      2355 55174.88708    73.38644    73.52062     0.25315
      2356 55219.02698    72.82787    74.37716     0.24897
      2357 55263.20221    72.52549    76.04629     0.24349
      2358 55307.41277    72.41241    74.16733     0.24821
      2359 55351.65870    72.42005    74.15565     0.24887
      2360 55395.94003    72.46809    72.72851     0.25315
      2361 55440.25678    72.48714    74.61990     0.24799
      2362 55484.60898    72.46121    70.97493     0.25704
      2363 55528.99667    72.43942    73.79657     0.24744
      2364 55573.41987    72.51493    74.60685     0.24293
      2365 55617.87860    72.91368    72.76404     0.24567
      2366 55662.37291    73.77028    73.29511     0.24334
      2367 55706.90280    75.32799    72.60248     0.24467
      2368 55751.46833    78.01360    81.09612     0.22357
      2369 55796.06950    82.17067    86.39812     0.21139
      2370 55840.70636    87.79129    85.36387     0.21252
      2371 55885.37892    94.32810    92.39473     0.19882
      2372 55930.08723   100.81544   100.33987     0.18536
      2373 55974.83129   106.65242   108.73098     0.17285
      2374 56019.61116   113.12679   112.41693     0.16783
      2375 56064.42685   124.10321   129.46055     0.14905
      2376 56109.27839   144.51625   150.28831     0.13120
      2377 56154.16581   177.24885   181.99408     0.11078
      2378 56199.08915   219.92006   219.04040     0.09359
      2379 56244.04842   263.21004   258.18223     0.08033
      2380 56289.04366   292.21265   276.21660     0.07533
      2381 56334.07489   293.83570   273.10870     0.07605
      2382 56379.14215   267.22002   247.60556     0.08326
      2383 56424.24546   223.65819   217.71793     0.09376
      2384 56469.38486   177.25543   170.99220     0.11679
      2385 56514.56037   138.08516   141.64773     0.13811
      2386 56559.77202   110.23411   119.97913     0.15948
      2387 56605.01983    93.03040    96.89004     0.19073
      2388 56650.30385    83.55355    89.73075     0.20260
      2389 56695.62409    78.73982    80.82456     0.21962
      2390 56740.98059    76.30476    79.04480     0.22283
      2391 56786.37338    75.15571    73.67492     0.23454
      2392 56831.80248    74.66591    78.69391     0.22196
      2393 56877.26792    74.65438    76.54639     0.22622
      2394 56922.76973    75.24467    75.87141     0.22731
      2395 56968.30795    76.84076    74.97585     0.22860
      2396 57013.88259    80.11317    81.30194     0.21382
      2397 57059.49370    85.84259    81.86796     0.21182
      2398 57105.14130    94.52279    90.76318     0.19462
      2399 57150.82541   105.79778    99.51747     0.18048
      2400 57196.54607   117.99733   112.96122     0.16271
      2401 57242.30331   128.15163   126.16429     0.14836
      2402 57288.09715   133.10135   125.59846     0.14888
      2403 57333.92763   131.63359   125.69887     0.14861
      2404 57379.79477   125.22341   122.41209     0.15173
      2405 57425.69860   116.70015   118.25677     0.15590
      2406 57471.63916   109.25575   116.98400     0.15699
      2407 57517.61647   106.33599   115.49417     0.15836
      2408 57563.63057   111.65224   118.32868     0.15464
      2409 57609.68147   128.94947   135.28910     0.13730
      2410 57655.76922   160.89084   168.22328     0.11291
      2411 57701.89383   206.83199   210.28533     0.09206
      2412 57748.05535   260.39578   267.10927     0.07378
      2413 57794.25379   308.55242   304.88066     0.06519
      2414 57840.48919   334.62483   327.50144     0.06093
      2415 57886.76159   327.64853   316.60566     0.06282
      2416 57933.07100   291.03338   284.76499     0.06928
      2417 57979.41745   238.90909   242.87732     0.08019
      2418 58025.80099   186.28557   187.07187     0.10159
      2419 58072.22163   143.04048   152.83395     0.12152
      2420 58118.67940   112.69751   123.86788     0.14577
      2421 58165.17435    93.99200   107.21508     0.16463
      2422 58211.70649    83.58283    91.07052     0.18793
      2423 58258.27585    78.15214    83.80314     0.19973
      2424 58304.88247    75.33886    75.24778     0.21565
      2425 58351.52638    73.78304    77.70487     0.20913
      2426 58398.20760    72.75489    73.60360     0.21775
      2427 58444.92617    71.95030    72.44284     0.22090
      2428 58491.68211    71.40634    77.39096     0.21037
      2429 58538.47545    70.98709    71.31737     0.22418
      2430 58585.30623    70.64644    74.18351     0.21708
      2431 58632.17448    70.36293    74.78787     0.21529
      2432 58679.08022    70.12374    74.51768     0.21552
      2433 58726.02348    69.91990    72.33235     0.22044
      2434 58773.00430    69.74472    72.53343     0.21984
      2435 58820.02270    69.59314    71.67237     0.22123
      2436 58867.07872    69.48047    69.58013     0.22536
      2437 58914.17239    69.39449    71.46772     0.21964
      2438 58961.30372    69.30247    67.78686     0.22737
      2439 59008.47277    69.21729    71.95524     0.21580
      2440 59055.67954    69.14141    69.39873     0.22049
      2441 59102.92409    69.07453    65.93379     0.22826
      2442 59150.20643    69.01592    70.51920     0.21692
      2443 59197.52659    68.96495    66.37895     0.22763
      2444 59244.88461    68.92115    70.60203     0.21829
      2445 59292.28052    68.88430    68.15123     0.22550
      2446 59339.71435    68.85455    68.74483     0.22515
      2447 59387.18612    68.83283    71.86137     0.21791
      2448 59434.69587    68.80524    70.87485     0.21941
      2449 59482.24362    68.78612    67.66935     0.22542
      2450 59529.82942    68.82608    70.54549     0.21607
      2451 59577.45328    68.94010    66.47544     0.22383
      2452 59625.11524    69.18449    70.56298     0.21264
      2453 59672.81534    69.65452    69.02188     0.21537
      2454 59720.55359    70.42981    70.35869     0.21168
      2455 59768.33003    71.53950    69.74670     0.21270
      2456 59816.14470    72.91926    72.33919     0.20664
      2457 59863.99761    74.30647    69.37035     0.21311
      2458 59911.88881    75.30349    75.40944     0.19986
      2459 59959.81832    75.55480    70.95772     0.20951
      2460 60007.78617    74.97190    71.09213     0.20976
      2461 60055.79240    73.67551    70.53891     0.21176
      2462 60103.83704    72.19081    69.58800     0.21458
      2463 60151.92011    70.90930    68.01412     0.21866
      2464 60200.04164    69.93620    72.39169     0.20812
      2465 60248.20168    69.52431    71.21037     0.20981
      2466 60296.40024    69.27829    70.22978     0.20988
      2467 60344.63736    69.13367    70.28926     0.20721
      2468 60392.91307    69.08248    67.33938     0.21200
      2469 60441.22740    69.08889    63.68842     0.21977
      2470 60489.58038    69.12971    67.04070     0.21081
      2471 60537.97204    69.19410    69.14935     0.20521
      2472 60586.40242    69.27911    70.08380     0.20215
      2473 60634.87154    69.38642    70.10218     0.20071
      2474 60683.37944    69.52661    69.09875     0.20168
      2475 60731.92615    69.71171    64.57504     0.21114
      2476 60780.51169    69.97530    73.96898     0.19011
      2477 60829.13610    70.40618    69.38955     0.19830
      2478 60877.79940    71.19334    67.90933     0.20025
      2479 60926.50164    72.68878    73.49122     0.18800
      2480 60975.24285    75.44401    73.91676     0.18694
      2481 61024.02304    80.13827    77.76318     0.18015
      2482 61072.84226    87.32066    85.79239     0.16730
      2483 61121.70053    96.97985    92.40719     0.15801
      2484 61170.59789   108.10668    98.77974     0.14974
      2485 61219.53437   118.50531   112.51077     0.13417
      2486 61268.51000   125.18138   115.17746     0.13092
      2487 61317.52481   125.73445   117.39317     0.12822
      2488 61366.57883   120.06733   112.05706     0.13289
      2489 61415.67209   110.36950   109.54908     0.13558
      2490 61464.80463    99.54652    93.98263     0.15446
      2491 61513.97647    89.88721    90.75420     0.15967
      2492 61563.18765    82.57387    78.39800     0.18006
      2493 61612.43820    77.76693    78.01275     0.18087
      2494 61661.72815    75.00672    75.74015     0.18484
      2495 61711.05753    73.65004    78.32323     0.17923
      2496 61760.42638    73.15582    76.42359     0.18111
      2497 61809.83472    73.19626    72.82924     0.18571
      2498 61859.28259    73.66851    75.30421     0.17909
      2499 61908.77002    74.69304    74.77199     0.17863
      2500 61958.29703    76.63046    74.48392     0.17817
      2501 62007.86367    80.08327    77.35423     0.17279
      2502 62057.46996    85.79477    85.36829     0.16000
      2503 62107.11594    94.36592    91.74800     0.15105
      2504 62156.80163   105.81843   107.84235     0.13251
      2505 62206.52707   119.20078   118.88405     0.12210
      2506 62256.29229   132.53247   126.15118     0.11591
      2507 62306.09733   143.44709   143.88890     0.10335
      2508 62355.94220   151.01359   151.87692     0.09846
      2509 62405.82696   157.93964   157.52592     0.09522
      2510 62455.75162   170.57460   172.27765     0.08781
      2511 62505.71622   196.22059   198.26480     0.07725
      2512 62555.72079   239.54442   252.91417     0.06182
      2513 62605.76537   299.22260   300.10265     0.05274
      2514 62655.84998   365.84729   364.86527     0.04389
      2515 62705.97466   422.40064   419.07462     0.03845
      2516 62756.13944   449.32663   430.19460     0.03742
      2517 62806.34435   435.41945   430.97415     0.03727
      2518 62856.58943   385.81451   384.11545     0.04149
      2519 62906.87470   317.07784   318.26328     0.04944
      2520 62957.20020   246.90932   260.31432     0.05952
      2521 63007.56596   187.75211   200.62676     0.07538
      2522 63057.97201   144.97111   160.14968     0.09191
      2523 63108.41839   118.03250   135.56727     0.10591
      2524 63158.90513   103.09879   109.63643     0.12651
      2525 63209.43225    95.51155    99.67723     0.13667
      2526 63259.99980    91.36083   101.78526     0.13406
      2527 63310.60780    88.19051    91.91318     0.14510
      2528 63361.25628    85.01503    92.11776     0.14393
      2529 63411.94529    81.78969    82.36897     0.15591
      2530 63462.67484    78.80568    79.77631     0.15851
      2531 63513.44498    76.33101    73.87265     0.16717
      2532 63564.25574    74.48002    73.16149     0.16805
      2533 63615.10714    73.22327    68.45754     0.17675
      2534 63665.99923    72.46027    72.91899     0.16907
      2535 63716.93203    72.06596    72.76064     0.16977
      2536 63767.90557    72.04871    78.04845     0.16091
      2537 63818.91990    72.38749    73.21544     0.16880
      2538 63869.97503    73.05990    71.73304     0.17106
      2539 63921.07101    73.99259    78.29824     0.15929
      2540 63972.20787    75.01499    84.30637     0.14949
      2541 64023.38564    75.85581    79.77239     0.15534
      2542 64074.60435    76.21169    78.16942     0.15729
      2543 64125.86403    75.90833    78.65965     0.15616
      2544 64177.16472    75.02435    82.30839     0.15061
      2545 64228.50645    73.82118    80.57112     0.15320
      2546 64279.88926    72.58402    74.56217     0.16243
      2547 64331.31317    71.51976    79.19247     0.15415
      2548 64382.77822    70.72580    73.42633     0.16196
      2549 64434.28444    70.20544    68.15810     0.16977
      2550 64485.83187    69.90594    67.88305     0.16884
      2551 64537.42053    69.76801    69.87131     0.16425
      2552 64589.05047    69.70913    71.79974     0.16065
      2553 64640.72171    69.67584    70.22310     0.16351
      2554 64692.43429    69.63666    69.05437     0.16553
      2555 64744.18824    69.57603    66.82064     0.16913
      2556 64795.98359    69.48707    66.56643     0.16931
      2557 64847.82037    69.36105    65.39986     0.17167
      2558 64899.69863    69.27229    71.69267     0.16052
      2559 64951.61839    69.20497    67.99701     0.16684
      2560 65003.57968    69.15579    65.91418     0.17063
      2561 65055.58255    69.12226    67.44922     0.16792
      2562 65107.62701    69.10079    62.62489     0.17778
      2563 65159.71312    69.08773    73.39253     0.15830
      2564 65211.84089    69.08024    69.51232     0.16538
      2565 65264.01036    68.97747    71.05109     0.16261
      2566 65316.22157    68.76931    67.43101     0.16872
      2567 65368.47454    68.73852    70.72253     0.16224
      2568 65420.76932    68.74420    70.00618     0.16300
      2569 65473.10594    68.75903    67.55209     0.16700
      2570 65525.48442    68.77636    70.20026     0.16201
      2571 65577.90481    68.79498    70.67434     0.16112
      2572 65630.36714    68.81430    68.59857     0.16457
      2573 65682.87143    68.83542    66.11415     0.16879
      2574 65735.41773    68.85741    70.12130     0.16122
      2575 65788.00606    68.87851    69.28768     0.16251
      2576 65840.63647    68.89307    68.30365     0.16382
      2577 65893.30897    68.91457    71.05396     0.15843
      2578 65946.02362    68.93861    70.48246     0.15889
      2579 65998.78044    68.96393    73.91125     0.15265
      2580 66051.57946    68.99034    73.22040     0.15301
      2581 66104.42073    69.01790    70.42067     0.15688
      2582 66157.30426    69.04673    72.57925     0.15253
      2583 66210.23011    69.07699    71.15592     0.15407
      2584 66263.19829    69.10890    74.22058     0.14813
      2585 66316.20885    69.14271    70.18255     0.15362
      2586 66369.26182    69.29553    67.60695     0.15726
      2587 66422.35723    69.42420    70.38798     0.15189
      2588 66475.49511    69.48983    68.69663     0.15398
      2589 66528.67551    69.54802    72.88459     0.14638
      2590 66581.89845    69.60920    70.18954     0.14942
      2591 66635.16397    69.67733    68.89353     0.15026
      2592 66688.47210    69.75501    65.98917     0.15409
      2593 66741.82288    69.85086    69.51260     0.14804
      2594 66795.21634    69.98837    69.33724     0.14878
      2595 66848.65251    70.20492    70.85036     0.14732
      2596 66902.13143    70.57561    73.53421     0.14438
      2597 66955.65314    71.22625    73.99733     0.14502
      2598 67009.21766    72.33386    71.29247     0.15033
      2599 67062.82503    74.09501    72.76772     0.14793
      2600 67116.47529    76.64888    80.31256     0.13591
      2601 67170.16847    79.96587    78.61071     0.13663
      2602 67223.90461    83.74350    83.66506     0.12810
      2603 67277.68373    87.36427    80.89233     0.12937
      2604 67331.50588    89.97606    79.83261     0.12879
      2605 67385.37108    90.79225    74.65094     0.13391
      2606 67439.27938    89.55867    80.83028     0.12544
      2607 67493.23080    86.72595    77.68490     0.12918
      2608 67547.22539    83.12252    72.22523     0.13686
      2609 67601.26317    79.54191    71.12085     0.13941
      2610 67655.34418    76.52089    72.21951     0.13912
      2611 67709.46845    74.28814    75.39243     0.13567
      2612 67763.63603    72.82276    69.24291     0.14511
      2613 67817.84694    71.96505    71.12963     0.14160
      2614 67872.10122    71.52154    72.29042     0.13894
      2615 67926.39890    71.32983    70.32667     0.14153
      2616 67980.74002    71.68847    74.62935     0.13563
      2617 68035.12461    71.96789    68.81467     0.14482
      2618 68089.55271    72.12077    66.87238     0.14849
      2619 68144.02435    72.29220    69.44149     0.14456
      2620 68198.53957    72.51915    68.66037     0.14571
      2621 68253.09840    72.82964    67.88294     0.14660
      2622 68307.70088    73.25283    70.31690     0.14183
      2623 68362.34704    73.81236    72.47396     0.13745
      2624 68417.03692    74.51299    72.11074     0.13708
      2625 68471.77055    75.32805    75.48449     0.13185
      2626 68526.54796    76.19486    74.33231     0.13300
      2627 68581.36920    77.02703    75.44528     0.13114
      2628 68636.23430    77.76014    73.60853     0.13289
      2629 68691.14328    78.44186    78.50075     0.12535
      2630 68746.09620    79.33043    76.46043     0.12669
      2631 68801.09308    80.97151    76.53461     0.12574
      2632 68856.13395    84.28954    84.92694     0.11573
      2633 68911.21886    90.68240    87.95047     0.11246
      2634 68966.34783   101.99320   100.02814     0.10156
      2635 69021.52091   120.17860   119.76810     0.08758
      2636 69076.73813   146.55859   144.15563     0.07473
      2637 69131.99952   180.76552   177.23469     0.06226
      2638 69187.30512   219.77227   214.65532     0.05237
      2639 69242.65496   257.49835   250.62142     0.04542
      2640 69298.04909   285.50972   279.78914     0.04097
      2641 69353.48753   295.70071   288.15780     0.03979
      2642 69408.97032   284.80789   273.09327     0.04173
      2643 69464.49749   256.61914   243.20387     0.04629
      2644 69520.06909   219.18880   214.02109     0.05178
      2645 69575.68514   180.71125   179.55453     0.06025
      2646 69631.34569   147.10599   147.14655     0.07128
      2647 69687.05077   121.28365   123.58120     0.08224
      2648 69742.80041   103.52460   110.81521     0.08971
      2649 69798.59465    92.47120    98.35298     0.09871
      2650 69854.43353    86.19064    91.24240     0.10483
      2651 69910.31707    82.91666    83.04437     0.11278
      2652 69966.24533    81.36839    86.64639     0.10870
      2653 70022.21832    80.75994    77.65537     0.11767
      2654 70078.23610    80.67229    77.00071     0.11740
      2655 70134.29869    80.91127    75.64326     0.11799
      2656 70190.40613    81.40246    74.89433     0.11807
      2657 70246.55845    82.14072    81.88771     0.10987
      2658 70302.75570    83.20910    79.90946     0.11148
      2659 70358.99790    84.76684    76.85214     0.11410
      2660 70415.28510    87.19533    83.40242     0.10621
      2661 70471.61733    91.31205    87.78358     0.10116
      2662 70527.99462    98.71687    89.92628     0.09844
      2663 70584.41702   112.21321   107.34697     0.08492
      2664 70640.88455   136.09143   139.50533     0.06808
      2665 70697.39726   175.87555   179.12680     0.05476
      2666 70753.95518   237.08010   237.21177     0.04253
      2667 70810.55834   322.94888   332.39138     0.03108
      2668 70867.20679   430.98874   450.00377     0.02326
      2669 70923.90055   550.83056   600.16123     0.01757
      2670 70980.63967   663.47720   695.47125     0.01515
      2671 71037.42419   743.92407   796.83244     0.01321
      2672 71094.25412   769.38795   799.65669     0.01309
      2673 71151.12953   731.94867   768.09771     0.01355
      2674 71208.05043   643.69676   653.27220     0.01578
      2675 71265.01687   528.38197   540.35889     0.01887
      2676 71322.02889   409.92765   445.34962     0.02264
      2677 71379.08651   305.73371   323.26175     0.03056
      2678 71436.18978   224.58611   250.61031     0.03857
      2679 71493.33873   167.63760   179.66844     0.05186
      2680 71550.53340   131.13439   154.56589     0.05871
      2681 71607.77383   109.43476   119.69788     0.07225
      2682 71665.06005    97.20564   105.06150     0.07956
      2683 71722.39209    90.69475    98.57555     0.08289
      2684 71779.77001    86.97027    95.44758     0.08413
      2685 71837.19382    84.64603    81.17194     0.09450
      2686 71894.66358    83.06534    82.32135     0.09303
      2687 71952.17931    81.89574    79.37647     0.09533
      2688 72009.74105    80.97985    81.97607     0.09276
      2689 72067.34885    80.24047    75.69539     0.09825
      2690 72125.00273    79.63530    82.34350     0.09215
      2691 72182.70273    79.13760    80.45888     0.09367
      2692 72240.44889    78.72857    78.28690     0.09551
      2693 72298.24125    78.36684    78.26463     0.09544
      2694 72356.07984    77.95083    79.94316     0.09382
      2695 72413.96471    77.70932    75.46333     0.09786
      2696 72471.89588    77.54461    74.02556     0.09905
      2697 72529.87339    77.42910    80.18028     0.09288
      2698 72587.89729    77.35505    78.56975     0.09384
      2699 72645.96761    77.31929    77.09172     0.09457
      2700 72704.08438    77.32004    82.62381     0.08917
      2701 72762.24765    77.35677    77.31522     0.09324
      2702 72820.45745    77.42989    77.99812     0.09251
      2703 72878.71382    77.54079    75.91512     0.09464
      2704 72937.01679    77.69161    78.22183     0.09272
      2705 72995.36640    77.88585    76.19085     0.09432
      2706 73053.76269    78.12842    75.94112     0.09397
      2707 73112.20570    78.42607    77.75708     0.09172
      2708 73170.69547    78.78824    75.01411     0.09358
      2709 73229.23202    79.22901    78.34840     0.09007
      2710 73287.81541    79.77195    78.27390     0.08983
      2711 73346.44566    80.46185    83.67797     0.08525
      2712 73405.12282    81.39162    85.91387     0.08335
      2713 73463.84692    82.75729    76.37277     0.09079
      2714 73522.61800    84.95714    84.29011     0.08405
      2715 73581.43609    88.74150    95.67643     0.07613
      2716 73640.30124    95.38731    87.28846     0.08199
      2717 73699.21348   106.81179   111.99800     0.06793
      2718 73758.17285   125.46978   134.50166     0.05883
      2719 73817.17939   153.85932   166.64920     0.04903
      2720 73876.23313   193.56378   202.21601     0.04123
      2721 73935.33412   244.00085   255.24209     0.03326
      2722 73994.48239   301.31003   308.32636     0.02782
      2723 74053.67797   357.89283   354.08328     0.02434
      2724 74112.92091   403.10167   396.52987     0.02180
      2725 74172.21125   425.75746   404.28115     0.02132
      2726 74231.54902   419.38396   387.07302     0.02214
      2727 74290.93426   386.73381   360.59417     0.02360
      2728 74350.36701   336.73638   324.87752     0.02597
      2729 74409.84730   280.79071   278.26654     0.02990
      2730 74469.37518   228.88860   240.59937     0.03407
      2731 74528.95068   188.02486   191.61077     0.04172
      2732 74588.57384   162.15495   183.14057     0.04343
      2733 74648.24470   153.04349   177.47410     0.04470
      2734 74707.96329   161.29390   184.31539     0.04327
      2735 74767.72966   186.84995   209.80650     0.03850
      2736 74827.54385   228.62150   236.06486     0.03454
      2737 74887.40588   283.45018   295.69351     0.02801
      2738 74947.31581   345.04316   359.47471     0.02326
      2739 75007.27366   403.50319   390.65639     0.02140
      2740 75067.27948   446.49983   430.93124     0.01941
      2741 75127.33330   462.67853   434.16228     0.01919
      2742 75187.43517   447.19106   428.99069     0.01933
      2743 75247.58512   404.57858   394.45783     0.02085
      2744 75307.78319   345.65983   331.27155     0.02446
      2745 75368.02941   282.28296   278.01214     0.02867
      2746 75428.32384   223.86208   225.56049     0.03454
      2747 75488.66649   175.99032   186.18277     0.04080
      2748 75549.05743   140.48254   147.10429     0.04982
      2749 75609.49667   116.34779   135.02947     0.05336
      2750 75669.98427   101.13030   116.59501     0.06016
      2751 75730.52026    92.08367   100.74072     0.06756
      2752 75791.10467    86.88644    98.22937     0.06852
      2753 75851.73756    83.89400    91.02220     0.07209
      2754 75912.41895    82.08747    79.68571     0.07908
      2755 75973.14888    80.90029    82.72357     0.07634
      2756 76033.92740    80.04288    81.24482     0.07711
      2757 76094.75454    79.54492    73.47699     0.08299
      2758 76155.63035    79.17055    71.54187     0.08425
      2759 76216.55485    78.78746    75.30603     0.08034
      2760 76277.52810    78.42111    76.37010     0.07860
      2761 76338.55012    78.10052    69.40193     0.08321
      2762 76399.62096    77.82357    70.97913     0.08108
      2763 76460.74066    77.58427    64.89433     0.08600
      2764 76521.90925    77.37714    72.84336     0.07950
      2765 76583.12678    77.19751    76.19065     0.07739
      2766 76644.39328    77.04155    67.28121     0.08506
      2767 76705.70879    76.90614    73.99310     0.07947
      2768 76767.07336    76.78871    70.04374     0.08273
      2769 76828.48702    76.68713    74.90519     0.07875
      2770 76889.94981    76.59970    70.25323     0.08246
      2771 76951.46177    76.52489    70.90235     0.08168
      2772 77013.02294    76.46146    72.35667     0.08010
      2773 77074.63335    76.40841    67.82346     0.08334
      2774 77136.29306    76.36496    73.51064     0.07782
      2775 77198.00210    76.33040    71.98082     0.07827
      2776 77259.76050    76.30421    72.02452     0.07792
      2777 77321.56831    76.28597    80.18995     0.07214
      2778 77383.42556    76.27543    75.36162     0.07569
      2779 77445.33230    76.27245    70.02591     0.07962
      2780 77507.28857    76.15641    79.52392     0.07185
      2781 77569.29440    76.14376    68.02232     0.07933
      2782 77631.34983    76.30492    71.56026     0.07552
      2783 77693.45491    76.37487    69.22810     0.07673
      2784 77755.60968    76.44179    66.19299     0.07905
      2785 77817.81416    76.51851    68.81851     0.07721
      2786 77880.06842    76.60820    75.51937     0.07277
      2787 77942.37247    76.71244    72.39013     0.07579
      2788 78004.72637    76.83116    76.80609     0.07298
      2789 78067.13015    76.96284    76.07391     0.07330
      2790 78129.58385    77.10460    69.46171     0.07752
      2791 78192.08752    77.25287    66.97359     0.07829
      2792 78254.64119    77.40507    69.49266     0.07511
      2793 78317.24490    77.56146    69.49092     0.07447
      2794 78379.89870    77.72652    72.15079     0.07240
      2795 78442.60262    77.90781    71.09005     0.07336
      2796 78505.35670    78.07403    79.71202     0.06759
      2797 78568.16099    78.05256    82.25358     0.06598
      2798 78631.01552    78.28723    77.94865     0.06869
      2799 78693.92033    78.61988    77.69700     0.06888
      2800 78756.87546    79.01898    74.46122     0.07101
      2801 78819.88096    79.48945    76.83047     0.06896
      2802 78882.93687    80.04880    77.74819     0.06778
      2803 78946.04322    80.73065    87.27272     0.06166
      2804 79009.20005    81.60212    74.35768     0.06945
      2805 79072.40741    82.82519    80.53184     0.06526
      2806 79135.66534    84.65220    86.93105     0.06127
      2807 79198.97387    87.57364    81.76509     0.06389
      2808 79262.33305    92.51501   101.33844     0.05409
      2809 79325.74292   100.92491   111.87323     0.05007
      2810 79389.20351   114.85220   117.86966     0.04808
      2811 79452.71487   136.80055   151.00282     0.03908
      2812 79516.27705   169.23753   189.51205     0.03206
      2813 79579.89007   213.72317   226.13988     0.02739
      2814 79643.55398   269.80624   298.55083     0.02129
      2815 79707.26882   334.03196   348.77291     0.01845
      2816 79771.03464   399.46315   419.71899     0.01553
      2817 79834.85147   456.06403   447.73025     0.01461
      2818 79898.71935   492.47918   469.86225     0.01396
      2819 79962.63832   499.86312   486.26109     0.01351
      2820 80026.60843   476.35296   445.60565     0.01467
      2821 80090.62972   428.07442   416.17128     0.01564
      2822 80154.70222   365.68601   379.19054     0.01705
      2823 80218.82599   300.10301   317.35887     0.02008
      2824 80283.00105   239.87365   249.63972     0.02496
      2825 80347.22745   190.12917   211.73240     0.02888
      2826 80411.50523   152.65619   162.70883     0.03628
      2827 80475.83443   126.70624   147.14086     0.03952
      2828 80540.21510   110.12193   136.85271     0.04204
      2829 80604.64727   100.38874   112.85962     0.04926
      2830 80669.13099    95.35939   112.09540     0.04955
      2831 80733.66630    93.62097   103.71241     0.05273
      2832 80798.25323    94.60646    99.82225     0.05429
      2833 80862.89183    98.58363   104.84632     0.05216
      2834 80927.58214   106.57142   107.03963     0.05122
      2835 80992.32421   120.18327   131.94880     0.04317
      2836 81057.11807   141.29086   158.49101     0.03700
      2837 81121.96376   171.44130   186.66317     0.03221
      2838 81186.86133   211.06906   228.12617     0.02706
      2839 81251.81082   258.67664   269.73676     0.02332
      2840 81316.81227   310.26234   330.18522     0.01939
      2841 81381.86572   359.25681   376.82452     0.01714
      2842 81446.97122   397.24275   407.62903     0.01591
      2843 81512.12879   415.96698   420.90972     0.01542
      2844 81577.33850   410.70285   395.59640     0.01631
      2845 81642.60037   382.80375   378.25064     0.01696
      2846 81707.91445   338.83865   319.46715     0.01976
      2847 81773.28078   287.38436   286.45241     0.02180
      2848 81838.69940   236.25456   250.21782     0.02463
      2849 81904.17036   191.05778   180.86844     0.03275
      2850 81969.69370   154.76499   163.82429     0.03583
      2851 82035.26945   127.97985   133.02252     0.04284
      2852 82100.89767   109.65379   124.36311     0.04560
      2853 82166.57839    97.93428    99.42079     0.05492
      2854 82232.31165    90.87069    93.32825     0.05818
      2855 82298.09750    86.84399    89.01220     0.06080
      2856 82363.93598    84.72914    93.18483     0.05912
      2857 82429.82713    83.88371    90.60266     0.06067
      2858 82495.77099    84.05700    91.14476     0.06007
      2859 82561.76760    85.28810    73.01783     0.06999
      2860 82627.81702    87.77442    80.33759     0.06426
      2861 82693.91927    91.77328    90.52448     0.05839
      2862 82760.07441    97.46554    94.40278     0.05675
      2863 82826.28247   104.79532   104.53438     0.05300
      2864 82892.54349   113.34311   124.33843     0.04658
      2865 82958.85753   122.25807   137.53801     0.04299
      2866 83025.22461   130.28713   132.60624     0.04411
      2867 83091.64479   135.95083   143.15595     0.04104
      2868 83158.11811   137.95285   147.78836     0.03969
      2869 83224.64460   135.75400   142.53226     0.04082
      2870 83291.22432   129.86223   133.22345     0.04324
      2871 83357.85730   121.53718   122.22643     0.04659
      2872 83424.54358   112.24257   120.09785     0.04750
      2873 83491.28322   103.24450   105.90376     0.05271
      2874 83558.07625    95.41889    96.60119     0.05675
      2875 83624.92271    89.20722    89.67398     0.06029
      2876 83691.82265    84.67825    88.61691     0.06105
      2877 83758.77610    81.42922    84.83152     0.06312
      2878 83825.78312    79.47855    77.32666     0.06747
      2879 83892.84375    78.60748    72.63097     0.07028
      2880 83959.95803    78.49266    79.12633     0.06574
      2881 84027.12599    78.95081    73.16798     0.06946
      2882 84094.34769    79.88264    81.29419     0.06440
      2883 84161.62317    81.19509    73.99082     0.06910
      2884 84228.95247    82.75795    82.89526     0.06363
      2885 84296.33563    84.38444    81.03228     0.06476
      2886 84363.77270    85.83381    74.78742     0.06862
      2887 84431.26372    86.84580    84.99806     0.06230
      2888 84498.80873    87.21915    84.35536     0.06253
      2889 84566.40778    86.90848    85.01864     0.06216
      2890 84634.06090    86.05424    88.65424     0.06025
      2891 84701.76815    84.90870    80.63194     0.06465
      2892 84769.52957    83.72891    77.39186     0.06640
      2893 84837.34519    82.70185    83.17743     0.06268
      2894 84905.21507    81.91020    71.75097     0.06970
      2895 84973.13924    81.33025    78.99781     0.06506
      2896 85041.11775    80.85873    79.50121     0.06495
      2897 85109.15064    80.36723    79.78374     0.06494
      2898 85177.23796    79.76683    79.74476     0.06492
      2899 85245.37975    79.04281    74.27497     0.06827
      2900 85313.57606    78.24073    77.13364     0.06637
      2901 85381.82692    77.43124    78.98001     0.06529
      2902 85450.13238    76.62528    70.96870     0.07094
      2903 85518.49249    75.76806    87.11892     0.06151
      2904 85586.90728    75.22734    72.35132     0.07103
      2905 85655.37681    74.85445    72.99053     0.07033
      2906 85723.90111    74.60244    74.13103     0.06882
      2907 85792.48023    74.44262    72.47607     0.06919
      2908 85861.11421    74.35059    73.41285     0.06793
      2909 85929.80310    74.30842    68.50582     0.07078
      2910 85998.54695    74.30715    67.34793     0.07149
      2911 86067.34578    74.34859    70.68058     0.06960
      2912 86136.19966    74.44712    70.42870     0.07086
      2913 86205.10862    74.63168    69.73684     0.07271
      2914 86274.07271    74.94679    78.31498     0.06763
      2915 86343.09197    75.45061    76.38797     0.06923
      2916 86412.16644    76.20721    75.36988     0.06989
      2917 86481.29617    77.27138    73.30828     0.07106
      2918 86550.48121    78.66669    76.79218     0.06824
      2919 86619.72159    80.36127    77.68593     0.06728
      2920 86689.01737    82.24896    78.97430     0.06636
      2921 86758.36858    84.14275    83.38225     0.06365
      2922 86827.77528    85.78669    84.06083     0.06313
      2923 86897.23750    86.89576    83.09946     0.06378
      2924 86966.75529    87.23782    89.43593     0.06075
      2925 87036.32869    86.73555    78.19515     0.06788
      2926 87105.95776    85.50645    85.39919     0.06409
      2927 87175.64252    83.80059    86.31907     0.06411
      2928 87245.38304    81.85717    80.22653     0.06803
      2929 87315.17934    80.00158    81.87057     0.06668
      2930 87385.03149    78.38797    80.05171     0.06733
      2931 87454.93951    77.10496    74.07847     0.07111
      2932 87524.90346    76.18304    88.21949     0.06246
      2933 87594.92339    75.61171    77.18376     0.06931
      2934 87664.99933    75.36807    83.48402     0.06535
      2935 87735.13133    75.44415    81.18572     0.06662
      2936 87805.31943    75.85903    75.39467     0.07019
      2937 87875.56369    76.66022    77.65922     0.06836
      2938 87945.86414    77.91013    76.25084     0.06884
      2939 88016.22083    79.65718    71.87333     0.07144
      2940 88086.63380    81.89928    77.60732     0.06746
      2941 88157.10311    84.54819    87.93018     0.06168
      2942 88227.62879    87.40602    78.35799     0.06775
      2943 88298.21090    90.16274    91.02002     0.06089
      2944 88368.84947    92.42299    89.95978     0.06145
      2945 88439.54455    93.77917    95.93785     0.05822
      2946 88510.29618    93.94224    93.84554     0.05894
      2947 88581.10442    92.87274    85.28816     0.06313
      2948 88651.96930    90.79413    88.21579     0.06139
      2949 88722.89088    88.09273    80.76096     0.06552
      2950 88793.86919    85.18289    83.99731     0.06389
      2951 88864.90429    82.39943    78.28478     0.06802
      2952 88935.99621    79.97344    82.73979     0.06630
      2953 89007.14501    78.02006    75.97519     0.07180
      2954 89078.35072    76.55390    72.93759     0.07495
      2955 89149.61340    75.52009    71.76285     0.07622
      2956 89220.93309    74.82905    71.03347     0.07661
      2957 89292.30984    74.38533    79.99367     0.06961
      2958 89363.74369    74.10316    73.15276     0.07383
      2959 89435.23468    73.92641    70.84556     0.07520
      2960 89506.78287    73.81023    75.07472     0.07213
      2961 89578.38830    73.72775    71.88145     0.07462
      2962 89650.05101    73.66370    69.69023     0.07644
      2963 89721.77105    73.60981    71.76895     0.07475
      2964 89793.54846    73.56173    71.17946     0.07480
      2965 89865.38330    73.51717    72.55964     0.07327
      2966 89937.27561    73.47487    65.89570     0.07827
      2967 90009.22543    73.43406    72.47932     0.07327
      2968 90081.23281    73.39422    70.07440     0.07540
      2969 90153.29780    73.35495    70.67370     0.07538
      2970 90225.42044    73.31595    76.16398     0.07150
      2971 90297.60077    73.27695    74.14333     0.07286
      2972 90369.83885    73.23774    76.90605     0.07055
      2973 90442.13472    73.19811    76.33030     0.07017
      2974 90514.48843    73.15791    73.39664     0.07104
      2975 90586.90002    73.11698    75.09635     0.06882
      2976 90659.36954    73.07520    68.84263     0.07232
      2977 90731.89704    73.03245    66.94903     0.07314
      2978 90804.48256    72.98863    70.67684     0.07026
      2979 90877.12614    72.94364    73.48659     0.06858
      2980 90949.82784    72.89738    70.26675     0.07131
      2981 91022.58770    72.84979    72.78580     0.07002
      2982 91095.40577    72.80078    73.91667     0.06928
      2983 91168.28210    72.75028    78.33253     0.06591
      2984 91241.21672    72.69823    85.73671     0.06107
      2985 91314.20970    72.64321    78.68373     0.06470
      2986 91387.26107    72.96116    77.24590     0.06528
      2987 91460.37087    73.25066    73.59706     0.06725
      2988 91533.53917    73.25179    70.70943     0.06858
      2989 91606.76600    73.22022    76.99653     0.06367
      2990 91680.05142    73.18297    76.90050     0.06291
      2991 91753.39546    73.14410    68.51026     0.06778
      2992 91826.79817    73.10438    79.76295     0.06055
      2993 91900.25961    73.06389    70.31591     0.06607
      2994 91973.77982    73.02265    72.33370     0.06450
      2995 92047.35884    72.98072    72.70452     0.06395
      2996 92120.99673    72.93817    74.68455     0.06235
      2997 92194.69353    72.89505    80.75422     0.05853
      2998 92268.44928    72.85149    72.80295     0.06289
      2999 92342.26404    72.80755    70.55643     0.06453
      3000 92416.13785    72.76333    77.93707     0.06053
      3001 92490.07076    72.71896    77.89367     0.06085
      3002 92564.06282    72.67455    75.37378     0.06247
      3003 92638.11407    72.63027    76.55877     0.06165
      3004 92712.22456    72.58628    78.62473     0.06023
      3005 92786.39434    72.54276    80.79461     0.05885
      3006 92860.62346    72.49994    71.67618     0.06417
      3007 92934.91196    72.45804    80.55253     0.05868
      3008 93009.25988    72.40905    77.40106     0.05982
      3009 93083.66729    72.36016    81.06620     0.05689
      3010 93158.13423    72.32216    74.57557     0.05926
      3011 93232.66073    72.28746    72.97239     0.05946
      3012 93307.24686    72.25551    74.54501     0.05865
      3013 93381.89266    72.22667    69.27555     0.06227
      3014 93456.59817    72.20141    75.47134     0.05925
      3015 93531.36345    72.18031    68.62204     0.06383
      3016 93606.18854    72.16400    71.47031     0.06219
      3017 93681.07349    73.33542    73.38816     0.06090
      3018 93756.01835    74.28792    72.68625     0.06115
      3019 93831.02317    74.74658    85.68671     0.05423
      3020 93906.08799    74.88668    91.71393     0.05176
      3021 93981.21286    75.26356    82.90550     0.05606
      3022 94056.39783    75.47104    79.54993     0.05776
      3023 94131.64295    75.62034    82.01267     0.05634
      3024 94206.94826    75.77899    84.38084     0.05487
      3025 94282.31382    75.95717    84.20116     0.05460
      3026 94357.73967    76.15871    78.77358     0.05701
      3027 94433.22586    76.38705    76.26769     0.05815
      3028 94508.77244    76.64582    84.10311     0.05377
      3029 94584.37946    76.93907    78.41587     0.05592
      3030 94660.04696    77.27160    80.94214     0.05391
      3031 94735.77500    77.64913    75.04795     0.05625
      3032 94811.56362    78.07853    71.79138     0.05772
      3033 94887.41287    78.56814    73.21370     0.05697
      3034 94963.32280    79.12856    79.29645     0.05391
      3035 95039.29346    79.77399    80.52286     0.05341
      3036 95115.32490    80.52515    78.20461     0.05445
      3037 95191.41715    81.41512    74.38714     0.05599
      3038 95267.57029    82.50097    80.22663     0.05237
      3039 95343.78434    83.88544    73.30447     0.05518
      3040 95420.05937    85.75494    83.45487     0.05011
      3041 95496.39542    88.43939    80.93479     0.05128
      3042 95572.79254    92.50097    85.49557     0.04937
      3043 95649.25077    98.84593    92.52291     0.04656
      3044 95725.77017   108.84223   104.04787     0.04247
      3045 95802.35079   124.40143   107.25923     0.04141
      3046 95878.99267   147.95987   126.57718     0.03631
      3047 95955.69586   182.28152   152.76049     0.03112
      3048 96032.46042   230.02049   211.58255     0.02348
      3049 96109.28639   293.03714   279.39558     0.01826
      3050 96186.17382   371.55443   348.19605     0.01487
      3051 96263.12275   463.33813   483.74748     0.01089
      3052 96340.13325   563.13376   569.32045     0.00929
      3053 96417.20536   662.56117   701.79595     0.00758
      3054 96494.33912   750.62219   814.27087     0.00655
      3055 96571.53460   815.09408   870.13166     0.00612
      3056 96648.79182   845.23478   921.36110     0.00577
      3057 96726.11086   835.45445   888.27315     0.00596
      3058 96803.49175   787.73802   791.97349     0.00663
      3059 96880.93454   710.69948   727.89797     0.00716
      3060 96958.43929   616.22310   622.00739     0.00829
      3061 97036.00604   516.21532   516.45928     0.00984
      3062 97113.63484   420.58795   420.71281     0.01187
      3063 97191.32575   336.29194   339.59956     0.01444
      3064 97269.07881   267.09010   273.03733     0.01762
      3065 97346.89407   213.90215   218.88302     0.02155
      3066 97424.77159   175.54303   182.72190     0.02537
      3067 97502.71141   149.61337   171.24359     0.02689
      3068 97580.71358   133.31269   153.51981     0.02954
      3069 97658.77815   124.03234   136.37478     0.03250
      3070 97736.90517   119.69504   129.41522     0.03361
      3071 97815.09469   118.89321   112.91263     0.03718
      3072 97893.34677   120.92045   130.06024     0.03275
      3073 97971.66145   125.79346   126.59856     0.03322
      3074 98050.03878   134.34043   130.56902     0.03221
      3075 98128.47881   148.39594   142.76712     0.02973
      3076 98206.98159   171.09541   150.76316     0.02821
      3077 98285.54717   207.20138   182.00219     0.02390
      3078 98364.17561   263.32734   220.05251     0.02018
      3079 98442.86695   347.82644   279.73716     0.01623
      3080 98521.62125   470.14474   367.48775     0.01261
      3081 98600.43854   639.42046   530.05262     0.00892
      3082 98679.31889   862.32487   741.60326     0.00645
      3083 98758.26235  1140.39130  1038.15775     0.00464
      3084 98837.26896  1467.36251  1394.52199     0.00347
      3085 98916.33877  1827.23661  1811.78105     0.00267
      3086 98995.47185  2193.62220  2233.32190     0.00217
      3087 99074.66822  2530.89728  2678.59144     0.00181
      3088 99153.92796  2798.01233  2966.39297     0.00163
      3089 99233.25110  2956.32883  3146.69885     0.00153
      3090 99312.63770  2980.97723  3152.02215     0.00152
      3091 99392.08781  2869.71327  2993.86025     0.00159
      3092 99471.60148  2642.40163  2752.27813     0.00172
      3093 99551.17876  2332.76447  2421.72298     0.00194
      3094 99630.81971  1979.26941  2052.50143     0.00227
      3095 99710.52436  1618.27664  1661.13257     0.00278
      3096 99790.29278  1279.27474  1296.16309     0.00352
      3097 99870.12502   982.22669   974.13426     0.00461
      3098 99950.02112   737.17254   728.07314     0.00607
      3099 100029.98113   545.64811   585.85893     0.00741
      3100 100110.00512   403.11655   451.06214     0.00943
      3101 100190.09312   301.62253   330.03405     0.01256
      3102 100270.24520   232.08415   263.58326     0.01541
      3103 100350.46139   185.91365   215.45663     0.01846
      3104 100430.74176   155.91543   179.17400     0.02162
      3105 100511.08635   136.58679   164.19508     0.02311
      3106 100591.49522   124.02513   139.53641     0.02618
      3107 100671.96842   115.63414   128.55732     0.02746
      3108 100752.50599   109.76837   120.22139     0.02835
      3109 100833.10800   105.44506   101.65003     0.03158
      3110 100913.77449   102.09279    95.28899     0.03251
      3111 100994.50550    99.38513   101.81225     0.03049
      3112 101075.30111    97.13460    91.22856     0.03257
      3113 101156.16135    95.22975    94.49780     0.03140
      3114 101237.08628    93.59998    93.68656     0.03132
      3115 101318.07595    92.19676    86.94631     0.03286
      3116 101399.13041    90.98400    77.13971     0.03573
      3117 101480.24971    89.93323    85.19469     0.03357
      3118 101561.43391    89.02096    89.08673     0.03265
      3119 101642.68306    88.22734    81.57940     0.03479
      3120 101723.99721    87.53520    82.75273     0.03439
      3121 101805.37640    86.92959    93.70522     0.03137
      3122 101886.82071    86.39727    80.15087     0.03496
      3123 101968.33016    85.31105    83.46610     0.03383
      3124 102049.90483    84.79652    77.68257     0.03552
      3125 102131.54475    84.42564    88.46984     0.03242
      3126 102213.24999    84.09766    84.06742     0.03370
      3127 102295.02059    83.79391    86.78915     0.03298
      3128 102376.85660    83.50477    79.83254     0.03505
      3129 102458.75809    83.22267    83.00424     0.03429
      3130 102540.72509    82.94035    78.19817     0.03604
      3131 102622.75767    82.65066    89.26154     0.03285
      3132 102704.85588    82.34656    84.18068     0.03418
      3133 102787.01977    82.02112    77.25045     0.03597
      3134 102869.24938    81.66737    78.07873     0.03509
      3135 102951.54478    81.27834    85.87362     0.03236
      3136 103033.90602    80.84695    85.24362     0.03239
      3137 103116.33314    80.36601    75.65409     0.03541
      3138 103198.82621    79.82823    77.41885     0.03528
      3139 103281.38527    79.22614    79.71222     0.03506
      3140 103364.01038    78.55179    80.68910     0.03503
      3141 103446.70159    77.79714    85.79090     0.03331
      3142 103529.45895    76.95388    72.78750     0.03735
      
data_d6_MAPbI3_10K_p_02
_diffrn_radiation_wavelength     2.665
# 1 Angstrom bandwith with centre wavelengths of 2.665 Angstrom      
loop_
_pd_proc_point_id
_pd_meas_time_of_flight
_pd_proc_intensity_total
_pd_calc_intensity_total
_pd_proc_ls_weight
         1 25984.00730    52.65185    47.83872     0.58060
         2 26004.79451    59.74117    52.18417     0.53118
         3 26025.59834    62.93927    59.75702     0.48354
         4 26046.41882    60.68546    54.04128     0.52654
         5 26067.25596    58.99797    51.78486     0.54231
         6 26088.10976    59.80446    50.66767     0.57164
         7 26108.98025    65.33211    61.07167     0.49343
         8 26129.86743    93.46082    92.78543     0.35623
         9 26150.77133   163.39337   167.17295     0.21699
        10 26171.69194   210.75927   237.12415     0.16049
        11 26192.62930   184.38872   195.31765     0.19612
        12 26213.58340   138.28749   133.50258     0.27892
        13 26234.55427   105.97480    92.99386     0.38686
        14 26255.54191    91.28189    80.49856     0.44430
        15 26276.54634    86.48113    79.86133     0.45889
        16 26297.56758    79.25036    75.48685     0.48885
        17 26318.60564    69.27565    62.93160     0.57565
        18 26339.66052    61.47212    57.60412     0.62243
        19 26360.73225    57.73683    54.47575     0.66650
        20 26381.82083    58.00282    56.01911     0.66077
        21 26402.92629    58.45532    54.98680     0.69043
        22 26424.04863    56.78955    52.00324     0.72948
        23 26445.18787    54.26659    53.61317     0.71963
        24 26466.34402    52.87940    48.53625     0.80543
        25 26487.51710    54.80014    51.98768     0.76682
        26 26508.70711    58.73992    57.41237     0.71315
        27 26529.91408    59.78833    60.55459     0.69436
        28 26551.13801    61.37946    60.39942     0.70956
        29 26572.37892    67.72705    69.45819     0.63335
        30 26593.63682    70.07634    75.28345     0.60504
        31 26614.91173    69.37828    70.05574     0.64526
        32 26636.20366    73.56309    73.11915     0.62952
        33 26657.51262    80.25881    80.35618     0.59609
        34 26678.83863    78.21212    78.07329     0.61106
        35 26700.18170    69.60983    68.94520     0.67903
        36 26721.54185    61.88354    58.06014     0.78866
        37 26742.91908    57.77917    56.00567     0.80341
        38 26764.31342    59.43474    61.94178     0.75029
        39 26785.72487    69.70979    71.75494     0.68872
        40 26807.15345    78.32285    82.13147     0.61304
        41 26828.59917    84.57799    87.40491     0.58584
        42 26850.06205   103.24489   105.34652     0.50967
        43 26871.54210   121.90270   127.49380     0.42961
        44 26893.03933   120.64687   122.11708     0.45168
        45 26914.55377   114.95400   110.16066     0.49584
        46 26936.08541   106.66620    99.70813     0.55676
        47 26957.63428    93.65352    87.41608     0.62710
        48 26979.20038    83.88363    75.60666     0.71418
        49 27000.78374    76.16240    71.35792     0.74963
        50 27022.38437    72.11915    67.02011     0.80204
        51 27044.00228    70.18320    67.42318     0.81907
        52 27065.63748    69.77058    66.96580     0.83143
        53 27087.28999    67.79848    66.03612     0.85436
        54 27108.95982    62.76984    60.11801     0.92650
        55 27130.64699    60.57709    58.61728     0.95200
        56 27152.35151    69.85094    70.37369     0.83990
        57 27174.07339    95.24582    92.14929     0.68313
        58 27195.81265   104.74205   103.15164     0.62636
        59 27217.56930    97.18433    95.65600     0.67943
        60 27239.34335    94.78393    96.49888     0.67805
        61 27261.13483    92.56156    98.28564     0.67757
        62 27282.94374   107.50008   111.25579     0.61996
        63 27304.77009   152.07147   148.90164     0.48942
        64 27326.61391   166.38668   167.92079     0.44037
        65 27348.47520   142.74191   145.89445     0.51024
        66 27370.35398   111.64444   111.46816     0.65878
        67 27392.25026    86.20607    78.94334     0.89870
        68 27414.16406    70.45290    66.13038     1.04408
        69 27436.09539    61.82302    57.01896     1.20118
        70 27458.04427    58.10728    56.47222     1.21801
        71 27480.01070    58.83325    58.46032     1.19348
        72 27501.99471    67.37127    68.21118     1.06845
        73 27523.99631    83.01217    82.62001     0.93387
        74 27546.01551    95.44339    97.80997     0.81761
        75 27568.05232    97.71589   101.13300     0.80035
        76 27590.10676    84.42579    85.96692     0.93548
        77 27612.17885    71.30181    67.99453     1.16114
        78 27634.26859    63.52005    62.73615     1.25006
        79 27656.37600    61.62633    62.19718     1.27502
        80 27678.50110    74.82161    76.39134     1.10136
        81 27700.64391   118.70563   116.73965     0.76936
        82 27722.80442   151.19648   156.92513     0.59481
        83 27744.98266   132.59504   134.76137     0.69881
        84 27767.17865   102.67217   101.67143     0.90291
        85 27789.39239    81.29925    79.64565     1.11300
        86 27811.62391    69.95509    67.75003     1.28063
        87 27833.87321    72.93733    70.96670     1.24832
        88 27856.14030    86.01805    88.81709     1.04077
        89 27878.42522    83.59765    87.83304     1.06233
        90 27900.72796    69.44596    69.26080     1.28439
        91 27923.04854    59.40188    56.77938     1.52638
        92 27945.38698    54.28170    50.90914     1.66745
        93 27967.74329    52.36838    50.02907     1.69850
        94 27990.11748    53.58657    49.58577     1.75895
        95 28012.50958    55.34600    51.97419     1.71445
        96 28034.91958    54.24340    51.73689     1.74791
        97 28057.34752    53.48016    51.77619     1.77847
        98 28079.79340    56.14509    52.92670     1.79743
        99 28102.25723    60.60236    58.70005     1.66641
       100 28124.73904    69.78496    67.40531     1.48079
       101 28147.23883    79.26922    73.51913     1.41637
       102 28169.75662    77.45603    73.34799     1.43037
       103 28192.29243    68.02010    65.03382     1.57093
       104 28214.84626    59.44135    57.50893     1.76735
       105 28237.41814    54.30179    52.75000     1.91489
       106 28260.00807    52.12354    49.15745     2.03049
       107 28282.61608    51.65878    50.18777     2.00275
       108 28305.24217    51.40663    49.61126     2.02863
       109 28327.88636    53.30803    52.35637     1.94919
       110 28350.54867    59.93016    55.55163     1.89962
       111 28373.22911    69.12323    66.40497     1.64915
       112 28395.92770    77.40604    74.83982     1.52285
       113 28418.64444    78.42353    77.46437     1.48955
       114 28441.37935    68.76891    67.46218     1.66672
       115 28464.13246    59.18929    57.32434     1.89946
       116 28486.90376    53.83086    51.48786     2.10369
       117 28509.69329    51.37869    49.86894     2.17885
       118 28532.50104    50.62240    50.37515     2.13329
       119 28555.32704    52.10316    52.88184     2.09379
       120 28578.17130    62.16948    63.19839     1.85004
       121 28601.03384    85.66162    81.29602     1.50082
       122 28623.91467    93.07498    90.14282     1.39790
       123 28646.81380    79.43521    78.56389     1.56272
       124 28669.73125    68.68546    66.06415     1.81454
       125 28692.66703    63.54036    61.86247     1.92465
       126 28715.62117    59.08061    58.65940     2.01427
       127 28738.59367    55.62392    53.85381     2.18417
       128 28761.58454    53.91199    51.68999     2.25808
       129 28784.59381    52.21356    52.42369     2.21422
       130 28807.62148    51.15155    50.22262     2.30560
       131 28830.66758    51.17589    50.44037     2.31052
       132 28853.73211    52.83459    53.94284     2.20325
       133 28876.81510    59.77759    62.09350     1.98140
       134 28899.91655    84.15077    84.42739     1.54406
       135 28923.03649   125.14576   124.53691     1.10737
       136 28946.17491   130.61725   133.95828     1.03909
       137 28969.33185   110.12513   110.07844     1.24671
       138 28992.50732   101.01978   103.20873     1.31685
       139 29015.70133    89.38997    91.86959     1.45946
       140 29038.91389    81.71923    84.43333     1.57208
       141 29062.14502    94.81353    94.66866     1.43966
       142 29085.39473   106.73753   103.99100     1.32290
       143 29108.66305    95.77255    94.47165     1.44478
       144 29131.94998    77.45778    77.84882     1.69772
       145 29155.25554    67.61199    67.84856     1.92097
       146 29178.57974    65.15092    65.25215     1.97562
       147 29201.92261    61.23201    61.47303     2.08230
       148 29225.28415    58.07121    58.70704     2.16834
       149 29248.66437    56.13842    56.94239     2.24277
       150 29272.06331    53.67310    55.37279     2.29106
       151 29295.48096    52.93457    54.33354     2.35459
       152 29318.91734    59.09960    60.20184     2.16201
       153 29342.37247    77.99726    76.77155     1.76764
       154 29365.84637    89.65498    84.70837     1.66088
       155 29389.33905    78.00627    77.44495     1.77990
       156 29412.85052    63.42306    62.85569     2.11872
       157 29436.38080    55.27179    56.30490     2.31498
       158 29459.92991    51.42853    51.55655     2.50854
       159 29483.49785    49.69232    49.67190     2.60992
       160 29507.08465    48.90040    48.51363     2.65058
       161 29530.69032    48.42139    48.97036     2.63194
       162 29554.31487    48.24202    49.45237     2.62623
       163 29577.95832    48.64605    49.81774     2.63296
       164 29601.62069    50.92978    51.83879     2.55648
       165 29625.30198    55.63744    54.46116     2.47346
       166 29649.00222    57.15715    55.25526     2.47277
       167 29672.72143    55.44323    55.16943     2.47485
       168 29696.45960    55.71017    54.35477     2.52916
       169 29720.21677    56.84686    56.83746     2.46893
       170 29743.99294    59.63546    59.76364     2.35502
       171 29767.78814    66.77796    68.33654     2.13059
       172 29791.60237    81.30991    78.98171     1.89510
       173 29815.43565    91.90838    89.49209     1.72328
       174 29839.28800    83.55631    80.86782     1.90137
       175 29863.15943    71.45786    71.52742     2.08714
       176 29887.04996    62.10321    62.94172     2.34908
       177 29910.95960    56.88074    56.96950     2.56125
       178 29934.88837    54.53773    55.19285     2.62880
       179 29958.83628    52.19417    52.19397     2.77211
       180 29982.80335    50.43090    52.13648     2.76028
       181 30006.78959    49.99421    50.49521     2.84487
       182 30030.79502    51.46885    52.47892     2.77815
       183 30054.81966    54.57934    53.20062     2.78460
       184 30078.86351    56.35925    55.28469     2.72769
       185 30102.92660    56.97502    57.32892     2.65308
       186 30127.00894    61.45055    60.51341     2.54830
       187 30151.11055    70.87471    67.92883     2.33883
       188 30175.23144    73.74906    71.36171     2.24698
       189 30199.37162    69.49767    69.40962     2.30863
       190 30223.53112    73.99320    74.54079     2.18175
       191 30247.70995    84.04217    81.92345     2.02993
       192 30271.90811    87.32455    84.98361     1.97843
       193 30296.12564    90.29840    88.05399     1.92052
       194 30320.36254    84.90028    81.72969     2.06070
       195 30344.61883    80.84332    80.77029     2.08696
       196 30368.89453    82.93105    82.86757     2.06591
       197 30393.18964    75.51709    76.56560     2.20155
       198 30417.50419    65.49541    65.53116     2.51379
       199 30441.83820    63.86919    65.56772     2.50657
       200 30466.19167    78.36513    76.86301     2.22061
       201 30490.56462    97.92937    97.03572     1.82329
       202 30514.95707    95.50569    94.80903     1.88088
       203 30539.36904    95.00949    96.18948     1.86152
       204 30563.80053   129.61735   126.74805     1.46866
       205 30588.25157   163.65201   157.10575     1.21706
       206 30612.72218   141.18956   137.22729     1.37299
       207 30637.21235   106.37752   106.18491     1.72891
       208 30661.72212    87.13193    88.86641     2.04857
       209 30686.25150    77.18678    83.88781     2.13642
       210 30710.80050    84.54255    92.79538     1.98604
       211 30735.36914   130.95050   129.75092     1.48075
       212 30759.95744   177.58150   174.44498     1.13295
       213 30784.56540   154.25227   156.52866     1.25589
       214 30809.19306   108.67265   111.49906     1.71700
       215 30833.84041    79.60455    82.81617     2.22543
       216 30858.50748    65.23748    68.53123     2.62130
       217 30883.19429    61.04990    64.48164     2.75100
       218 30907.90084    64.19884    65.53990     2.74497
       219 30932.62716    65.59431    67.23560     2.67228
       220 30957.37327    61.20943    62.14215     2.88147
       221 30982.13917    57.45001    59.10912     3.01005
       222 31006.92488    61.27317    63.54965     2.86521
       223 31031.73042    80.32470    81.83420     2.32944
       224 31056.55580    97.97322    99.54679     1.98229
       225 31081.40105    88.72338    89.81450     2.15948
       226 31106.26617    71.98799    74.10627     2.52998
       227 31131.15118    65.54098    67.46149     2.75726
       228 31156.05610    71.87451    72.67730     2.60393
       229 31180.98094    77.15179    79.02379     2.44697
       230 31205.92573    70.17004    71.74618     2.63365
       231 31230.89047    60.46279    62.13913     2.98893
       232 31255.87518    54.41554    55.45473     3.27927
       233 31280.87988    51.43674    53.33999     3.37604
       234 31305.90459    50.10146    50.76667     3.57356
       235 31330.94931    49.72598    49.98439     3.61594
       236 31356.01407    50.42627    51.65967     3.50514
       237 31381.09888    51.97159    52.44803     3.48105
       238 31406.20376    53.07979    54.28610     3.38361
       239 31431.32872    53.91205    55.46760     3.31233
       240 31456.47379    54.18343    54.89016     3.38294
       241 31481.63897    55.29724    56.85322     3.26329
       242 31506.82428    59.09034    58.86301     3.22043
       243 31532.02974    61.65419    62.46477     3.03850
       244 31557.25536    64.24694    67.08840     2.87059
       245 31582.50116    81.29190    84.70032     2.35798
       246 31607.76716   136.57486   135.42684     1.56462
       247 31633.05338   200.66057   201.33934     1.08881
       248 31658.35982   188.82934   192.38429     1.13467
       249 31683.68651   132.72320   130.70493     1.61332
       250 31709.03346    91.52137    90.75028     2.24695
       251 31734.40069    70.49568    72.27997     2.69812
       252 31759.78821    60.83539    62.65065     3.08340
       253 31785.19604    57.76879    61.59970     3.09733
       254 31810.62419    59.99908    64.34965     2.98210
       255 31836.07269    69.18097    72.97891     2.69616
       256 31861.54155    88.60683    88.43701     2.30045
       257 31887.03078    97.18185    95.85841     2.12962
       258 31912.54041    85.38591    85.54115     2.35875
       259 31938.07044    71.59706    73.80119     2.67074
       260 31963.62090    66.72893    69.25525     2.81958
       261 31989.19179    67.24805    69.38019     2.81971
       262 32014.78315    66.60150    68.34442     2.85381
       263 32040.39497    67.16971    67.24228     2.88707
       264 32066.02729    64.83760    64.59256     2.99761
       265 32091.68011    59.97274    59.96980     3.18048
       266 32117.35346    58.56820    59.29250     3.21618
       267 32143.04734    63.47193    64.03943     3.03347
       268 32168.76178    73.53413    75.28267     2.64208
       269 32194.49679    95.19249    95.58493     2.17172
       270 32220.25238   128.10749   129.33382     1.65845
       271 32246.02858   135.64160   141.92835     1.53226
       272 32271.82541   118.23976   120.92441     1.76239
       273 32297.64287   116.45082   116.06956     1.82940
       274 32323.48098   119.19984   115.56316     1.84603
       275 32349.33977   104.28289   101.80255     2.06232
       276 32375.21924    86.29842    86.97734     2.36939
       277 32401.11941    73.43647    75.46639     2.66458
       278 32427.04031    64.97143    67.05848     2.95079
       279 32452.98194    64.14254    67.43763     2.94236
       280 32478.94433    75.01863    76.58426     2.68172
       281 32504.92748    96.68030    97.81287     2.17228
       282 32530.93143   116.96684   121.74626     1.79617
       283 32556.95617   110.63558   116.82640     1.86316
       284 32583.00174    93.08138    97.75407     2.17909
       285 32609.06814    86.43433    92.13696     2.28887
       286 32635.15539    85.41574    93.81321     2.25761
       287 32661.26352    96.37077   102.66973     2.09336
       288 32687.39253   125.80208   127.36764     1.74423
       289 32713.54244   128.70525   127.97702     1.73607
       290 32739.71327   100.56626   100.41387     2.14992
       291 32765.90504    76.04182    78.35430     2.65694
       292 32792.11777    62.76872    64.75884     3.12543
       293 32818.35146    56.24242    59.22886     3.36042
       294 32844.60614    53.08482    54.57497     3.64017
       295 32870.88183    51.84722    54.58551     3.59977
       296 32897.17853    52.27711    55.68148     3.54349
       297 32923.49628    54.74851    55.30996     3.61603
       298 32949.83507    58.30369    59.93151     3.39473
       299 32976.19494    58.19402    60.23464     3.38316
       300 33002.57590    55.10628    55.95032     3.58127
       301 33028.97796    53.10046    53.07394     3.75896
       302 33055.40114    54.35680    54.94449     3.66081
       303 33081.84546    60.12980    60.13926     3.39377
       304 33108.31094    64.67003    65.31873     3.18312
       305 33134.79759    65.07368    65.71871     3.16275
       306 33161.30543    71.47606    71.11272     3.01866
       307 33187.83447    80.53877    81.10244     2.68334
       308 33214.38474    76.57312    77.05263     2.79440
       309 33240.95625    66.25902    65.89815     3.19125
       310 33267.54901    59.44394    59.17162     3.50966
       311 33294.16305    57.06578    56.78695     3.64303
       312 33320.79838    60.15262    60.24845     3.48276
       313 33347.45502    73.19607    72.17084     2.98661
       314 33374.13298    95.09132    92.42112     2.42724
       315 33400.83229   122.34367   122.02254     1.89844
       316 33427.55296   145.09411   148.37584     1.60721
       317 33454.29500   167.71171   164.84456     1.44682
       318 33481.05843   188.93825   195.40627     1.24424
       319 33507.84328   160.68039   165.87327     1.44633
       320 33534.64955   114.83106   110.64849     2.09239
       321 33561.47727    85.85361    81.86076     2.72622
       322 33588.32646    74.12874    72.77773     3.00671
       323 33615.19712    77.59239    78.64038     2.84378
       324 33642.08928    95.98158    97.52470     2.35019
       325 33669.00295   134.91221   132.26818     1.80785
       326 33695.93815   172.59396   172.13842     1.41623
       327 33722.89490   154.30594   153.03528     1.57768
       328 33749.87322   114.11629   111.77966     2.09897
       329 33776.87311    90.76860    90.86163     2.53877
       330 33803.89461    91.66535    95.51054     2.42879
       331 33830.93773   131.26638   131.00832     1.83727
       332 33858.00248   208.53272   206.16004     1.21037
       333 33885.08888   244.61456   249.20114     1.01544
       334 33912.19695   195.18689   194.54213     1.29041
       335 33939.32671   131.62420   131.82104     1.84110
       336 33966.47817    92.80501    92.83283     2.52278
       337 33993.65135    72.99447    75.31194     3.00215
       338 34020.84627    62.95670    64.95169     3.43000
       339 34048.06295    57.85641    60.38295     3.65177
       340 34075.30140    55.58810    57.79731     3.75451
       341 34102.56164    55.26286    57.33732     3.82203
       342 34129.84369    58.22485    61.30560     3.60473
       343 34157.14757    72.52660    75.32340     3.01992
       344 34184.47328    98.81750    99.18050     2.38409
       345 34211.82086   105.57513   103.54557     2.30885
       346 34239.19032    88.78167    88.64202     2.64275
       347 34266.58167    74.72459    76.02314     3.03795
       348 34293.99494    74.63695    74.66911     3.09779
       349 34321.43013    83.73202    82.98313     2.84271
       350 34348.88728    87.70192    87.48492     2.71709
       351 34376.36639    86.51039    86.19378     2.75266
       352 34403.86748    86.98045    87.99355     2.72285
       353 34431.39057    91.59954    93.94109     2.56792
       354 34458.93569    87.51411    89.20469     2.70026
       355 34486.50284    74.55285    73.48370     3.19119
       356 34514.09204    63.20310    61.66387     3.67308
       357 34541.70331    56.60938    55.38173     4.03935
       358 34569.33667    53.10132    52.60038     4.20065
       359 34596.99214    51.29062    51.42684     4.25866
       360 34624.66974    50.72541    50.26954     4.35680
       361 34652.36947    51.69695    51.27213     4.29870
       362 34680.09137    53.17777    52.76029     4.20016
       363 34707.83544    52.72248    52.08828     4.24100
       364 34735.60171    51.16940    50.59910     4.36090
       365 34763.39019    50.05440    49.63944     4.41743
       366 34791.20090    49.52089    48.23145     4.51320
       367 34819.03386    49.37902    48.70468     4.51773
       368 34846.88909    49.66631    50.64227     4.33495
       369 34874.76660    51.43014    51.28964     4.32202
       370 34902.66642    57.52619    55.78875     4.05056
       371 34930.58855    66.40388    64.82116     3.60067
       372 34958.53302    68.12995    67.75798     3.45617
       373 34986.49985    62.55515    63.17139     3.67453
       374 35014.48905    58.13607    57.39118     3.97871
       375 35042.50064    57.84286    58.97505     3.88188
       376 35070.53464    57.46393    59.55948     3.85779
       377 35098.59107    54.69898    55.67697     4.10521
       378 35126.66994    52.01924    52.29400     4.29248
       379 35154.77127    50.45046    49.89187     4.48440
       380 35182.89509    49.64926    49.04637     4.55009
       381 35211.04141    49.25957    49.84941     4.44356
       382 35239.21024    49.09078    47.64493     4.66257
       383 35267.40161    49.01803    48.15114     4.59788
       384 35295.61553    48.99769    48.53927     4.56183
       385 35323.85202    49.06307    48.63845     4.55952
       386 35352.11110    49.19802    49.10509     4.51902
       387 35380.39279    49.40560    48.44414     4.58602
       388 35408.69711    49.73815    48.88221     4.53026
       389 35437.02407    50.32660    49.04921     4.53228
       390 35465.37368    51.90840    50.30573     4.46415
       391 35493.74598    58.63651    56.99209     4.02982
       392 35522.14098    78.59345    77.17025     3.14035
       393 35550.55869   100.11639   109.29420     2.32619
       394 35578.99914    97.41254   105.54137     2.38483
       395 35607.46234    86.94270    85.01880     2.87625
       396 35635.94831    85.12377    80.95516     2.99947
       397 35664.45707    80.38474    77.28715     3.14209
       398 35692.98863    70.17510    68.31301     3.46010
       399 35721.54302    63.76732    62.09759     3.77830
       400 35750.12026    64.36321    66.21480     3.57663
       401 35778.72035    69.75590    71.00235     3.37062
       402 35807.34333    79.26026    80.45738     3.01582
       403 35835.98921    86.27613    86.65480     2.83346
       404 35864.65800    84.27887    83.67186     2.91582
       405 35893.34972    76.95003    77.73484     3.09375
       406 35922.06440    67.60390    67.46437     3.51435
       407 35950.80205    60.96509    61.22616     3.78593
       408 35979.56270    59.65044    59.85554     3.87479
       409 36008.34635    69.51514    70.33005     3.35831
       410 36037.15302    95.86478    97.83061     2.53955
       411 36065.98275   114.70504   119.32427     2.13688
       412 36094.83553   103.95669   105.28928     2.37862
       413 36123.71140    84.14288    82.69132     2.93133
       414 36152.61037    70.01520    68.49966     3.42091
       415 36181.53246    61.65767    60.12512     3.81475
       416 36210.47768    57.36759    56.73724     3.99474
       417 36239.44607    55.04377    55.81132     4.05725
       418 36268.43762    53.53876    53.76492     4.16140
       419 36297.45237    53.42869    54.27338     4.11618
       420 36326.49034    57.64423    57.62262     3.92886
       421 36355.55153    70.21034    67.71367     3.48910
       422 36384.63597    81.50714    79.23971     3.03543
       423 36413.74368    77.05864    74.71211     3.19153
       424 36442.87467    66.54324    64.20962     3.61544
       425 36472.02897    59.80013    58.26368     3.91056
       426 36501.20660    57.04777    54.72068     4.12000
       427 36530.40756    55.85041    54.51834     4.10400
       428 36559.63189    55.26578    54.10890     4.16084
       429 36588.87959    56.70813    58.39638     3.86819
       430 36618.15070    66.82112    67.96132     3.46193
       431 36647.44522   102.78658   102.86431     2.39892
       432 36676.76317   157.30182   158.93106     1.62931
       433 36706.10458   167.11208   172.90825     1.49941
       434 36735.46947   131.68972   132.16042     1.90991
       435 36764.85784   102.36393    99.28587     2.48508
       436 36794.26973    94.80696    92.27599     2.63167
       437 36823.70514    94.12558    93.23560     2.61096
       438 36853.16411    83.80717    81.85733     2.91524
       439 36882.64664    71.45820    70.55303     3.29902
       440 36912.15276    64.58963    64.80758     3.54661
       441 36941.68248    60.51762    61.73960     3.66732
       442 36971.23583    57.06058    57.59699     3.92447
       443 37000.81281    55.14607    56.53846     3.93774
       444 37030.41346    56.81221    59.01125     3.81166
       445 37060.03779    67.47631    69.09649     3.33786
       446 37089.68583    86.12596    85.54169     2.78616
       447 37119.35757    91.00615    91.65897     2.61470
       448 37149.05306    78.75259    79.20157     2.96351
       449 37178.77230    66.33839    67.56762     3.35594
       450 37208.51532    59.17357    58.48018     3.78885
       451 37238.28213    55.45693    55.36125     3.93212
       452 37268.07276    53.52344    51.67402     4.17914
       453 37297.88722    52.56201    52.28811     4.12459
       454 37327.72553    52.19301    51.82314     4.13926
       455 37357.58771    52.31650    52.01417     4.13135
       456 37387.47378    53.41067    53.59537     4.00523
       457 37417.38376    56.94361    56.17082     3.86551
       458 37447.31766    62.47631    63.00954     3.50234
       459 37477.27552    65.47513    67.03394     3.32408
       460 37507.25734    69.61831    70.99078     3.17153
       461 37537.26314    88.30462    89.58627     2.59019
       462 37567.29295   121.81147   122.67393     1.95717
       463 37597.34679   148.29845   147.39091     1.65390
       464 37627.42467   155.63118   151.96281     1.61011
       465 37657.52661   153.83165   150.12778     1.61802
       466 37687.65263   147.00124   144.88509     1.67064
       467 37717.80275   126.31440   127.11120     1.86690
       468 37747.97699   115.79109   117.99727     2.00789
       469 37778.17537   160.10474   156.20002     1.55737
       470 37808.39791   271.74393   264.14634     0.94992
       471 37838.64463   330.09884   340.38008     0.74050
       472 37868.91555   267.17176   269.02520     0.92419
       473 37899.21068   183.37092   178.89113     1.35832
       474 37929.53005   141.07577   133.42050     1.77672
       475 37959.87367   130.90226   127.06946     1.85031
       476 37990.24157   117.55073   116.22902     2.01278
       477 38020.63376    94.51897    92.82099     2.43250
       478 38051.05027    76.02047    74.34839     2.95354
       479 38081.49111    65.23400    64.64883     3.29277
       480 38111.95630    59.24581    58.71267     3.58421
       481 38142.44587    55.79786    55.81587     3.72880
       482 38172.95983    53.75318    54.34247     3.76349
       483 38203.49819    52.57756    51.79575     3.94667
       484 38234.06099    51.97453    51.57273     3.93100
       485 38264.64824    51.96071    52.24659     3.87846
       486 38295.25996    52.83639    51.75062     3.96063
       487 38325.89617    53.90888    53.86559     3.79625
       488 38356.55688    53.65760    52.84675     3.87526
       489 38387.24213    52.62543    51.52263     3.91172
       490 38417.95192    51.85343    51.19141     3.90781
       491 38448.68629    51.51344    51.29863     3.94253
       492 38479.44523    51.48009    50.77402     3.93985
       493 38510.22879    51.78195    51.47119     3.89367
       494 38541.03697    52.94145    53.02392     3.80011
       495 38571.86980    57.84982    58.17474     3.54073
       496 38602.72730    72.03687    73.51435     2.89849
       497 38633.60948    89.73509    92.07648     2.40256
       498 38664.51637    92.06840    92.67680     2.38212
       499 38695.44798    83.59295    84.18512     2.56603
       500 38726.40434    77.74517    78.00720     2.74183
       501 38757.38546    74.83370    73.54703     2.87734
       502 38788.39137    70.11308    69.23736     3.02090
       503 38819.42208    64.22731    62.97723     3.24242
       504 38850.47762    60.49774    59.78827     3.41677
       505 38881.55800    59.93284    59.16629     3.43622
       506 38912.66325    65.46704    66.38696     3.11529
       507 38943.79338    91.91223    91.39357     2.37296
       508 38974.94842   159.42180   160.04364     1.42718
       509 39006.12837   231.26864   232.46422     1.00736
       510 39037.33328   231.98671   236.77487     0.98376
       511 39068.56314   180.41465   182.74822     1.25622
       512 39099.81799   133.22964   132.14149     1.68468
       513 39131.09785   108.83549   108.11930     2.01921
       514 39162.40273   107.83691   104.79809     2.06068
       515 39193.73265   118.50060   114.18995     1.91069
       516 39225.08764   113.05700   111.81859     1.94380
       517 39256.46771    92.48300    91.03388     2.33574
       518 39287.87288    74.89009    73.84363     2.77291
       519 39319.30318    64.64405    64.88246     3.07087
       520 39350.75862    59.15769    58.15536     3.39735
       521 39382.23923    56.31938    55.94414     3.44907
       522 39413.74502    54.84697    54.49221     3.55935
       523 39445.27602    54.23421    54.04217     3.56377
       524 39476.83224    55.27374    53.99465     3.56146
       525 39508.41370    58.51244    58.21886     3.29721
       526 39540.02043    60.54382    60.65511     3.19741
       527 39571.65245    58.79923    57.22309     3.37557
       528 39603.30977    56.08438    55.99967     3.40536
       529 39634.99242    54.49819    54.72715     3.41588
       530 39666.70041    54.33536    54.71795     3.43696
       531 39698.43377    56.67095    56.67189     3.31912
       532 39730.19252    63.21482    64.16540     2.96781
       533 39761.97667    70.16688    72.95858     2.68259
       534 39793.78626    72.71760    78.75718     2.48648
       535 39825.62128    84.17684    91.08476     2.18043
       536 39857.48178   128.58230   130.69971     1.58076
       537 39889.36777   190.61338   194.60348     1.08893
       538 39921.27926   201.04661   205.93002     1.02163
       539 39953.21628   163.98188   164.70858     1.25518
       540 39985.17886   127.39558   124.06784     1.63156
       541 40017.16700   100.23291   100.03193     1.96286
       542 40049.18073    82.43346    83.02325     2.29396
       543 40081.22008    74.01861    73.98979     2.53331
       544 40113.28505    68.98007    69.90480     2.63085
       545 40145.37568    63.16482    63.43543     2.85328
       546 40177.49198    58.15518    59.00638     2.98398
       547 40209.63398    54.98829    55.10096     3.17886
       548 40241.80168    53.15232    52.86428     3.26067
       549 40273.99513    52.06589    52.14592     3.29033
       550 40306.21432    51.42679    52.93911     3.19274
       551 40338.45929    51.05949    50.88020     3.33692
       552 40370.73006    50.84373    51.23398     3.29415
       553 40403.02664    50.72417    50.74412     3.29233
       554 40435.34907    50.67035    51.98643     3.19713
       555 40467.69735    50.66681    51.47473     3.20130
       556 40500.07150    50.71252    51.42769     3.17691
       557 40532.47156    50.81658    50.59293     3.23967
       558 40564.89754    50.99932    50.84216     3.22088
       559 40597.34946    51.30065    52.25307     3.11623
       560 40629.82734    51.85379    52.20912     3.12443
       561 40662.33120    53.33435    54.20879     3.02130
       562 40694.86106    59.32177    61.67112     2.69139
       563 40727.41695    78.50430    81.20244     2.11482
       564 40759.99888   108.78885   110.50588     1.60095
       565 40792.60688   118.75050   120.54323     1.47953
       566 40825.24097   100.87646   102.76093     1.68466
       567 40857.90116    80.08868    80.84795     2.08492
       568 40890.58748    67.08752    66.75037     2.43099
       569 40923.29995    59.96061    59.18076     2.70050
       570 40956.03859    55.98599    55.48589     2.83313
       571 40988.80342    53.72241    54.35294     2.85635
       572 41021.59447    52.41960    51.50354     2.98821
       573 41054.41174    51.66625    52.19169     2.92179
       574 41087.25527    51.23018    51.77266     2.91153
       575 41120.12508    50.97767    50.42868     2.98897
       576 41153.02118    50.83752    50.79685     2.95282
       577 41185.94359    50.78599    51.40272     2.89812
       578 41218.89235    50.80342    49.85075     2.97076
       579 41251.86746    50.86917    51.36378     2.85645
       580 41284.86896    50.97963    51.14450     2.85972
       581 41317.89685    51.18479    49.63629     2.93994
       582 41350.95117    51.48908    50.95261     2.85244
       583 41384.03193    51.91602    50.63857     2.86042
       584 41417.13915    52.55241    52.43817     2.75699
       585 41450.27287    53.87635    53.67038     2.72950
       586 41483.43308    58.14721    59.33917     2.46903
       587 41516.61983    71.75831    71.20259     2.13299
       588 41549.83313    99.74806    98.19018     1.60687
       589 41583.07299   128.98816   127.70641     1.26882
       590 41616.33945   135.70194   138.19121     1.16092
       591 41649.63252   117.91729   119.34935     1.33065
       592 41682.95223    96.16223    95.36786     1.62141
       593 41716.29859    86.82677    85.42704     1.77794
       594 41749.67163    94.91348    92.15775     1.65179
       595 41783.07137   107.37211   107.09560     1.44901
       596 41816.49782   102.14333   104.19096     1.48393
       597 41849.95102    85.31986    85.47439     1.76030
       598 41883.43098    71.49311    70.27881     2.07199
       599 41916.93773    63.49329    61.99054     2.29679
       600 41950.47128    59.25075    57.50487     2.44677
       601 41984.03165    57.24930    56.39405     2.47462
       602 42017.61888    57.26378    56.61772     2.44757
       603 42051.23298    60.17242    58.97662     2.39816
       604 42084.87396    65.44651    64.55714     2.21511
       605 42118.54186    69.56279    68.47819     2.10118
       606 42152.23669    75.84091    77.38132     1.87267
       607 42185.95848   104.15109   102.41935     1.47383
       608 42219.70725   176.67579   172.17644     0.91529
       609 42253.48302   250.28588   249.85190     0.64230
       610 42287.28580   242.34463   246.49933     0.65097
       611 42321.11563   180.55295   181.35499     0.86687
       612 42354.97252   126.79878   127.14195     1.18913
       613 42388.85650    95.00160    91.57025     1.60136
       614 42422.76759    77.65892    75.13207     1.89559
       615 42456.70580    68.55733    66.65655     2.09360
       616 42490.67117    65.59323    65.19467     2.12161
       617 42524.66370    68.83896    70.70364     1.98010
       618 42558.68343    75.55770    79.37496     1.78272
       619 42592.73038    82.84517    84.11969     1.70944
       620 42626.80456    93.65657    92.62632     1.55947
       621 42660.90601   100.16014    98.79622     1.46135
       622 42695.03473    96.25977    98.35417     1.46500
       623 42729.19076   101.53200   100.37736     1.43761
       624 42763.37411   133.78076   133.27702     1.10466
       625 42797.58481   165.17759   173.00085     0.87486
       626 42831.82288   153.35447   167.05364     0.88936
       627 42866.08834   119.52564   123.40303     1.16895
       628 42900.38121    95.56297    93.00187     1.49719
       629 42934.70151    89.45733    83.49832     1.64830
       630 42969.04928    95.74402    90.22184     1.53829
       631 43003.42452   101.58127    97.98162     1.42282
       632 43037.82725   101.68768    99.64011     1.38868
       633 43072.25752    95.54911    90.90861     1.51286
       634 43106.71532    83.55397    79.88822     1.68662
       635 43141.20069    72.22843    71.13541     1.83780
       636 43175.71366    65.12523    63.54256     2.02240
       637 43210.25423    61.88478    62.75987     2.02197
       638 43244.82243    62.86387    65.68740     1.95284
       639 43279.41829    74.92771    79.31839     1.65739
       640 43314.04182   112.85683   115.98714     1.16576
       641 43348.69306   168.01471   166.49501     0.83842
       642 43383.37201   184.89044   186.56438     0.75028
       643 43418.07871   155.54678   158.28391     0.86886
       644 43452.81317   125.19037   126.94081     1.06649
       645 43487.57542   108.88583   109.97967     1.20757
       646 43522.36548    94.81876    97.78251     1.32151
       647 43557.18337    80.47838    80.13710     1.58209
       648 43592.02912    70.49052    70.19486     1.75848
       649 43626.90274    67.25299    66.59858     1.83962
       650 43661.80427    75.04956    75.66794     1.62609
       651 43696.73371    97.09730    97.69482     1.30637
       652 43731.69110   115.85852   118.03818     1.09752
       653 43766.67645   109.58946   112.24476     1.13921
       654 43801.68979    91.07144    92.81612     1.33708
       655 43836.73114    77.46854    77.28707     1.56772
       656 43871.80053    74.74032    72.20299     1.67267
       657 43906.89797    91.91428    91.05637     1.35236
       658 43942.02349   136.46351   135.84520     0.94551
       659 43977.17710   175.24392   181.59547     0.71549
       660 44012.35885   164.91070   176.21637     0.73272
       661 44047.56873   129.61705   132.16743     0.95063
       662 44082.80679   100.38462    99.48627     1.22116
       663 44118.07303    81.61530    78.74106     1.48923
       664 44153.36749    71.04373    69.03911     1.66055
       665 44188.69019    68.35525    66.68594     1.70892
       666 44224.04114    72.82796    70.59596     1.62994
       667 44259.42037    76.97791    78.09906     1.47802
       668 44294.82791    73.22804    73.51839     1.54104
       669 44330.26377    65.72939    66.50815     1.68004
       670 44365.72798    59.88103    60.18001     1.82961
       671 44401.22056    56.41868    57.50458     1.87293
       672 44436.74154    54.48044    53.22414     2.00169
       673 44472.29093    53.40832    53.62671     1.96087
       674 44507.86877    52.89392    54.12702     1.93769
       675 44543.47506    52.91565    51.49152     2.04236
       676 44579.10984    53.50425    53.13936     1.95905
       677 44614.77313    54.13485    54.65500     1.90316
       678 44650.46495    54.11269    53.95362     1.90760
       679 44686.18532    53.83717    54.58101     1.90229
       680 44721.93427    54.30377    53.07392     1.93671
       681 44757.71182    57.73127    57.00907     1.80613
       682 44793.51798    68.86140    66.66788     1.58782
       683 44829.35280    87.66304    85.92849     1.27183
       684 44865.21628    98.21096   101.36316     1.09544
       685 44901.10845    90.50451    91.53899     1.19265
       686 44937.02934    76.37133    74.97265     1.41651
       687 44972.97896    65.80725    64.07461     1.59121
       688 45008.95735    59.67839    56.78267     1.75095
       689 45044.96451    56.25403    54.32800     1.82632
       690 45081.00049    54.32043    52.83743     1.86247
       691 45117.06529    53.22273    51.64793     1.91006
       692 45153.15894    52.60167    52.08839     1.87001
       693 45189.28146    52.28924    50.52039     1.92961
       694 45225.43289    52.15789    51.70540     1.87383
       695 45261.61324    52.10089    51.78857     1.85597
       696 45297.82253    52.12829    51.49291     1.87674
       697 45334.06079    52.22979    50.93565     1.88446
       698 45370.32803    52.44028    52.83668     1.81937
       699 45406.62430    52.78558    51.60474     1.85461
       700 45442.94960    53.24836    53.97734     1.78345
       701 45479.30396    54.04846    54.12034     1.77165
       702 45515.68740    56.26404    55.49919     1.74628
       703 45552.09995    64.37650    63.35381     1.55154
       704 45588.54163    86.38333    82.96431     1.23624
       705 45625.01246   117.51116   115.74803     0.92140
       706 45661.51247   128.56749   129.16521     0.83273
       707 45698.04168   112.76317   112.28633     0.95135
       708 45734.60011    92.88745    92.13794     1.12615
       709 45771.18779    80.10743    78.84000     1.29134
       710 45807.80475    71.48019    70.65499     1.40783
       711 45844.45099    64.74974    63.17460     1.55802
       712 45881.12655    60.23062    58.83169     1.65290
       713 45917.83145    57.72901    56.44807     1.70059
       714 45954.56572    56.55395    55.14274     1.73136
       715 45991.32937    56.19312    54.61023     1.75761
       716 46028.12243    56.44754    53.66531     1.78711
       717 46064.94493    57.41552    54.60934     1.77319
       718 46101.79689    60.22263    56.98388     1.68690
       719 46138.67832    70.22537    65.32367     1.52059
       720 46175.58927    99.97796    94.26747     1.10011
       721 46212.52974   151.95434   150.93757     0.71895
       722 46249.49976   188.07504   197.40768     0.56050
       723 46286.49936   178.76996   186.19175     0.58902
       724 46323.52856   157.52953   161.02710     0.67424
       725 46360.58738   162.46466   162.75008     0.66790
       726 46397.67585   205.07432   197.82342     0.55361
       727 46434.79399   252.76856   246.20263     0.44836
       728 46471.94183   244.31857   244.96015     0.45213
       729 46509.11938   189.34718   194.10029     0.56028
       730 46546.32668   135.62866   135.27227     0.78409
       731 46583.56374   101.11449   100.10209     1.02259
       732 46620.83059    81.67969    81.47356     1.21821
       733 46658.12726    70.98266    69.77734     1.38824
       734 46695.45376    65.21742    64.71378     1.48537
       735 46732.81012    62.41343    63.16661     1.50584
       736 46770.19637    61.55873    60.79159     1.54545
       737 46807.61253    62.53604    63.76298     1.48411
       738 46845.05862    67.73471    68.00247     1.39190
       739 46882.53466    88.52321    88.15903     1.12266
       740 46920.04069   148.67514   145.66416     0.70612
       741 46957.57672   248.90209   247.94785     0.42894
       742 46995.14278   317.71336   323.59375     0.32866
       743 47032.73890   301.25224   309.28866     0.34215
       744 47070.36509   237.49660   239.19135     0.43717
       745 47108.02138   171.91829   170.97036     0.59461
       746 47145.70780   123.91459   120.86011     0.82158
       747 47183.42436    94.34641    93.89376     1.02049
       748 47221.17110    77.48345    76.01031     1.23167
       749 47258.94804    68.07241    66.62381     1.36792
       750 47296.75520    63.03551    63.40140     1.41568
       751 47334.59260    61.10775    62.99974     1.40931
       752 47372.46028    61.37132    62.66240     1.40306
       753 47410.35825    62.49431    64.98931     1.35715
       754 47448.28653    65.25786    67.03414     1.31897
       755 47486.24516    71.89129    72.05492     1.24718
       756 47524.23416    78.31325    78.24349     1.15390
       757 47562.25355    77.75180    78.75629     1.14604
       758 47600.30335    72.22140    73.48545     1.20525
       759 47638.38359    66.16977    67.02621     1.29895
       760 47676.49430    61.50378    63.10250     1.34957
       761 47714.63549    58.74522    59.05690     1.42046
       762 47752.80720    58.25307    56.84778     1.49448
       763 47791.00945    60.67785    60.33089     1.39309
       764 47829.24225    65.02726    61.45755     1.38851
       765 47867.50565    67.02119    65.53933     1.28854
       766 47905.79965    64.93315    64.04981     1.30380
       767 47944.12429    61.71384    59.94085     1.38435
       768 47982.47959    59.68920    58.23730     1.40170
       769 48020.86558    59.39545    59.83621     1.36393
       770 48059.28227    61.93860    60.96610     1.35102
       771 48097.72969    73.17828    74.26553     1.11908
       772 48136.20788   104.59998   106.69602     0.81384
       773 48174.71684   154.45581   152.05513     0.59522
       774 48213.25662   186.52391   186.34119     0.48763
       775 48251.82722   182.17126   182.82291     0.48911
       776 48290.42868   178.37005   176.14571     0.50229
       777 48329.06103   195.06915   194.02602     0.45898
       778 48367.72428   197.14810   199.02616     0.44629
       779 48406.41846   165.07476   167.00576     0.51700
       780 48445.14359   124.19885   121.49520     0.69233
       781 48483.89971    94.46600    88.52399     0.90983
       782 48522.68683    76.98729    74.01657     1.06532
       783 48561.50497    67.15017    64.60775     1.20100
       784 48600.35418    61.57799    59.68928     1.29134
       785 48639.23446    58.36743    57.83837     1.32001
       786 48678.14585    56.50533    55.76007     1.37405
       787 48717.08837    55.41206    55.15914     1.36422
       788 48756.06204    54.75467    54.52637     1.38552
       789 48795.06689    54.36064    54.04773     1.39350
       790 48834.10294    54.15858    52.26386     1.41819
       791 48873.17022    54.14489    52.36066     1.42038
       792 48912.26876    54.51006    55.38536     1.33490
       793 48951.39857    55.77239    54.94857     1.34436
       794 48990.55969    58.13365    55.17965     1.33410
       795 49029.75214    60.06557    58.17317     1.27619
       796 49068.97594    59.76721    59.03861     1.23862
       797 49108.23112    58.11736    56.52264     1.28511
       798 49147.51771    56.65919    55.79551     1.29040
       799 49186.83572    55.88121    53.58373     1.32167
       800 49226.18519    55.68921    54.89330     1.28729
       801 49265.56614    56.08996    53.67569     1.31163
       802 49304.97859    57.40814    57.27015     1.24424
       803 49344.42257    59.90745    59.35730     1.19814
       804 49383.89811    62.61399    62.88959     1.11898
       805 49423.40523    64.16597    65.39229     1.09557
       806 49462.94396    65.86146    67.17086     1.05647
       807 49502.51431    73.40572    78.71585     0.92271
       808 49542.11632   103.33578   109.24929     0.68969
       809 49581.75001   182.96629   182.14624     0.42621
       810 49621.41541   303.81194   298.42528     0.26920
       811 49661.11255   373.02835   375.84766     0.21401
       812 49700.84144   331.44011   339.62181     0.23474
       813 49740.60211   241.06874   244.60739     0.32022
       814 49780.39459   165.97917   166.32202     0.45737
       815 49820.21891   118.86884   117.40273     0.62731
       816 49860.07508    91.53026    91.53217     0.78479
       817 49899.96314    75.92627    75.20469     0.92538
       818 49939.88311    67.06830    69.06493     0.97220
       819 49979.83502    61.99324    62.49824     1.08103
       820 50019.81889    59.00934    61.22409     1.08010
       821 50059.83474    57.19438    58.68752     1.10610
       822 50099.88261    56.09084    59.09310     1.09976
       823 50139.96252    55.46022    56.94275     1.12625
       824 50180.07449    55.11897    55.10648     1.16167
       825 50220.21855    54.94988    55.37919     1.14389
       826 50260.39472    54.91304    55.09737     1.14568
       827 50300.60304    54.99360    55.18747     1.15274
       828 50340.84352    55.22173    55.67523     1.13367
       829 50381.11619    55.76407    55.75387     1.14840
       830 50421.42109    57.44674    57.56829     1.10353
       831 50461.75822    63.22897    63.61331     1.00537
       832 50502.12763    78.19308    79.30096     0.83461
       833 50542.52933   101.24090    99.91721     0.66744
       834 50582.96336   115.63687   112.86941     0.59967
       835 50623.42973   108.87819   106.69111     0.63458
       836 50663.92847    91.51617    90.64322     0.72520
       837 50704.45961    76.52264    72.70628     0.88602
       838 50745.02318    67.32524    64.68886     0.96927
       839 50785.61920    62.43779    61.90847     0.99713
       840 50826.24770    60.02332    62.08270     0.98593
       841 50866.90869    59.51334    60.46623     1.01868
       842 50907.60222    61.71413    63.53380     0.97062
       843 50948.32830    71.96593    74.53754     0.84052
       844 50989.08696   101.94522   102.05991     0.64857
       845 51029.87823   154.26653   149.28943     0.45712
       846 51070.70214   194.66590   189.02693     0.36753
       847 51111.55870   185.57343   179.22282     0.38854
       848 51152.44795   145.99176   143.32786     0.47002
       849 51193.36990   108.92521   105.76407     0.62154
       850 51234.32460    85.20937    81.48215     0.79014
       851 51275.31206    71.94008    71.96220     0.87878
       852 51316.33231    64.93000    64.84659     0.95457
       853 51357.38537    62.20577    62.89409     0.97663
       854 51398.47128    64.22486    64.74515     0.95775
       855 51439.59006    71.92267    71.33694     0.88329
       856 51480.74173    81.26950    79.42203     0.81153
       857 51521.92633    83.27759    82.46822     0.77412
       858 51563.14387    76.79149    76.77090     0.82099
       859 51604.39438    68.32283    68.60839     0.90365
       860 51645.67790    62.08309    62.47555     0.97845
       861 51686.99444    58.39900    58.01664     1.04829
       862 51728.34404    56.36150    57.91523     1.04602
       863 51769.72671    55.22385    55.58515     1.08561
       864 51811.14249    54.57298    55.95199     1.06676
       865 51852.59141    54.22980    55.47796     1.07735
       866 51894.07348    54.05830    52.89520     1.13308
       867 51935.58874    53.97020    52.78742     1.14093
       868 51977.13721    53.94804    52.61607     1.14106
       869 52018.71892    53.98140    54.17951     1.10949
       870 52060.33389    54.07017    54.09777     1.10145
       871 52101.98216    54.23560    55.09597     1.08984
       872 52143.66375    54.59319    53.94731     1.11859
       873 52185.37868    55.68141    54.88996     1.11344
       874 52227.12698    59.15198    59.07239     1.02796
       875 52268.90868    67.22166    66.65132     0.92781
       876 52310.72381    78.28836    74.04939     0.84866
       877 52352.57239    84.07104    81.01571     0.78196
       878 52394.45445    80.04369    76.83297     0.82339
       879 52436.37001    71.70036    72.04083     0.85257
       880 52478.31911    65.08489    63.65475     0.95789
       881 52520.30176    62.54766    62.01551     0.97572
       882 52562.31800    64.46096    63.81733     0.95643
       883 52604.36786    68.83553    70.92166     0.86568
       884 52646.45135    70.64343    72.79326     0.85268
       885 52688.56851    67.78670    69.23633     0.88924
       886 52730.71937    63.18393    63.74443     0.95250
       887 52772.90394    59.57048    59.47411     1.00138
       888 52815.12227    57.49265    57.93107     1.00547
       889 52857.37436    56.49113    54.76710     1.05075
       890 52899.66026    56.18773    53.48117     1.08299
       891 52941.97999    56.49075    55.26963     1.04327
       892 52984.33357    58.04074    58.59051     0.98150
       893 53026.72104    63.60371    61.50970     0.93166
       894 53069.14242    78.71708    76.74191     0.77522
       895 53111.59773   105.07381   106.44251     0.57601
       896 53154.08701   128.39533   131.75834     0.47920
       897 53196.61028   129.47151   131.75658     0.47459
       898 53239.16757   113.19263   113.57019     0.54105
       899 53281.75890    95.68872    92.46733     0.65536
       900 53324.38431    82.85769    81.21701     0.71798
       901 53367.04382    73.29916    72.40826     0.79434
       902 53409.73745    66.18424    64.85089     0.86727
       903 53452.46524    61.54566    61.64774     0.89203
       904 53495.22721    58.92404    58.85314     0.92961
       905 53538.02340    57.69546    57.85588     0.93805
       906 53580.85381    57.76421    57.58392     0.92871
       907 53623.71850    60.02369    61.17731     0.88001
       908 53666.61747    65.63515    64.00639     0.86591
       909 53709.55077    72.87590    73.65582     0.75806
       910 53752.51841    76.07589    73.69414     0.76183
       911 53795.52042    73.12302    70.22261     0.78921
       912 53838.55684    67.90679    66.76572     0.81059
       913 53881.62768    64.10915    61.02122     0.87825
       914 53924.73299    63.37960    61.41884     0.86738
       915 53967.87277    68.67620    67.23843     0.79987
       916 54011.04707    87.44643    85.74965     0.64181
       917 54054.25591   125.12306   126.77292     0.44913
       918 54097.49931   165.84739   166.90749     0.34994
       919 54140.77731   175.64979   179.60968     0.32297
       920 54184.08993   150.70028   149.96052     0.38330
       921 54227.43721   116.58221   112.06736     0.49470
       922 54270.81916    90.87763    86.15075     0.61847
       923 54314.23581    75.73319    75.40656     0.68773
       924 54357.68720    67.68041    65.49174     0.77471
       925 54401.17335    63.74501    62.55252     0.80237
       926 54444.69429    62.42080    61.32046     0.81858
       927 54488.25004    63.38711    64.36543     0.78419
       928 54531.84064    67.73556    70.39013     0.71352
       929 54575.46612    80.20433    80.85056     0.64426
       930 54619.12649   112.25151   112.80265     0.47753
       931 54662.82179   170.95955   175.40054     0.31568
       932 54706.55205   230.18765   236.54939     0.23797
       933 54750.31729   240.77793   246.21862     0.22845
       934 54794.11754   200.50978   202.94584     0.27238
       935 54837.95284   147.69312   146.61567     0.37042
       936 54881.82320   108.07289   107.42203     0.48265
       937 54925.72866    84.71476    83.97785     0.59741
       938 54969.66924    72.20156    72.28730     0.67293
       939 55013.64498    65.74061    65.74263     0.73001
       940 55057.65589    62.23787    62.44966     0.76018
       941 55101.70202    59.97700    60.89559     0.77833
       942 55145.78338    58.36015    59.00360     0.78130
       943 55189.90001    57.26871    55.92481     0.83111
       944 55234.05193    56.61507    56.17768     0.81778
       945 55278.23917    56.28502    58.80475     0.77438
       946 55322.46176    56.22840    57.57062     0.79002
       947 55366.71973    56.43699    55.21649     0.82632
       948 55411.01310    56.76287    57.19808     0.78149
       949 55455.34191    56.83200    57.18141     0.78851
       950 55499.70619    56.62868    56.60947     0.79354
       951 55544.10595    56.37044    57.31146     0.78007
       952 55588.54124    56.23037    55.01598     0.79522
       953 55633.01207    56.24884    55.94601     0.77510
       954 55677.51848    56.41244    54.45705     0.80857
       955 55722.06049    56.73424    55.82515     0.79047
       956 55766.63814    57.36319    57.84371     0.76179
       957 55811.25145    58.96601    58.86060     0.74583
       958 55855.90045    63.25542    63.43204     0.68557
       959 55900.58518    72.30040    69.60350     0.64289
       960 55945.30564    84.62494    81.37878     0.54933
       961 55990.06189    92.45726    89.22632     0.51028
       962 56034.85394    90.57943    88.74577     0.50845
       963 56079.68182    83.95434    82.17786     0.55234
       964 56124.54557    81.63760    81.54603     0.54699
       965 56169.44520    95.48408    97.32942     0.47333
       966 56214.38076   143.78967   149.94367     0.31277
       967 56259.35226   235.09637   234.23652     0.20798
       968 56304.35974   328.63976   325.97254     0.15116
       969 56349.40323   349.15070   339.09830     0.14503
       970 56394.48276   289.45807   285.34307     0.17136
       971 56439.59834   206.67393   201.41617     0.23707
       972 56484.75002   142.55993   143.25674     0.32441
       973 56529.93782   103.94827   108.29599     0.40839
       974 56575.16177    82.89964    86.80212     0.50210
       975 56620.42190    71.64492    75.06456     0.56658
       976 56665.71824    65.54568    67.25702     0.61988
       977 56711.05081    62.15132    63.83594     0.65342
       978 56756.41965    60.20580    62.26740     0.65562
       979 56801.82479    59.08715    60.54006     0.66918
       980 56847.26625    58.48340    60.17499     0.66401
       981 56892.74406    58.21094    58.99985     0.68304
       982 56938.25826    58.16486    59.00456     0.66905
       983 56983.80886    58.31736    61.03014     0.65164
       984 57029.39591    58.75305    61.10388     0.64147
       985 57075.01943    59.94072    60.99090     0.64669
       986 57120.67944    63.62863    67.58204     0.59361
       987 57166.37599    73.75210    75.20295     0.54187
       988 57212.10909    93.68611    92.36825     0.45314
       989 57257.87877   117.90921   111.90294     0.37875
       990 57303.68508   130.42405   125.48664     0.34221
       991 57349.52803   125.09058   121.00652     0.35410
       992 57395.40765   111.78141   107.87340     0.39396
       993 57441.32397    98.50139    97.40816     0.42525
       994 57487.27703    86.90512    83.94128     0.49023
       995 57533.26685    77.98726    78.12720     0.51985
       996 57579.29347    72.84780    72.96824     0.55877
       997 57625.35690    72.40496    75.07060     0.52843
       998 57671.45719    80.73842    85.97514     0.47210
       999 57717.59435   111.66728   116.11832     0.36411
      1000 57763.76843   186.70088   186.30326     0.23795
      1001 57809.97944   304.25384   301.53446     0.15111
      1002 57856.22743   399.21023   397.16493     0.11578
      1003 57902.51241   395.69886   395.40822     0.11616
      1004 57948.83442   312.03461   309.12422     0.14743
      1005 57995.19349   216.00770   212.16149     0.20893
      1006 58041.58964   146.43676   150.83218     0.28643
      1007 58088.02291   105.73336   108.15518     0.39158
      1008 58134.49333    83.81998    88.61348     0.46654
      1009 58181.00093    72.14372    73.36824     0.55640
      1010 58227.54573    65.77017    68.71370     0.58520
      1011 58274.12776    62.14368    65.13443     0.60606
      1012 58320.74707    59.99483    62.22115     0.64657
      1013 58367.40366    58.70147    60.90479     0.65098
      1014 58414.09759    57.90441    58.48840     0.66547
      1015 58460.82886    57.37898    59.25266     0.66538
      1016 58507.59753    57.00125    58.71806     0.66877
      1017 58554.40361    56.71193    57.61013     0.67593
      1018 58601.24713    56.48295    56.91681     0.69066
      1019 58648.12813    56.29865    57.38812     0.67719
      1020 58695.04663    56.14832    56.47782     0.69871
      1021 58742.00267    56.01291    58.27323     0.67891
      1022 58788.99627    55.88251    58.62788     0.66420
      1023 58836.02747    55.78606    58.05583     0.67304
      1024 58883.09629    55.70934    55.95114     0.70120
      1025 58930.20276    55.64269    58.11019     0.67848
      1026 58977.34693    55.59083    53.16207     0.73735
      1027 59024.52880    55.54960    55.07441     0.72515
      1028 59071.74843    55.51637    58.32592     0.67893
      1029 59119.00583    55.48956    57.65675     0.68305
      1030 59166.30103    55.46815    55.95415     0.69859
      1031 59213.63407    55.45150    55.45228     0.70586
      1032 59261.00498    55.43916    56.74757     0.70308
      1033 59308.41378    55.43089    56.45859     0.70818
      1034 59355.86051    55.29924    55.61412     0.71902
      1035 59403.34520    55.19766    57.91974     0.68442
      1036 59450.86788    55.16610    58.51495     0.67762
      1037 59498.42857    55.16819    59.20486     0.68035
      1038 59546.02732    55.18960    58.14538     0.69087
      1039 59593.66414    55.22559    55.72113     0.71856
      1040 59641.33907    55.29632    55.50669     0.71364
      1041 59689.05214    55.41319    56.69605     0.70472
      1042 59736.80338    55.62754    56.61311     0.70337
      1043 59784.59282    56.20138    56.08055     0.71764
      1044 59832.42050    57.65343    57.37141     0.69780
      1045 59880.28644    60.34409    57.25649     0.70865
      1046 59928.19066    63.44327    59.46877     0.69643
      1047 59976.13322    64.81399    63.02248     0.64974
      1048 60024.11412    63.55815    60.01875     0.68855
      1049 60072.13341    61.02033    59.49105     0.67814
      1050 60120.19112    58.73591    57.62732     0.69806
      1051 60168.28727    57.25507    56.97701     0.71228
      1052 60216.42190    56.44200    55.59926     0.72674
      1053 60264.59504    56.02673    56.04998     0.72377
      1054 60312.80672    55.82143    57.57585     0.69574
      1055 60361.05696    55.72449    57.12435     0.71589
      1056 60409.34581    55.68525    57.90325     0.69618
      1057 60457.67329    55.67950    55.70684     0.72479
      1058 60506.03942    55.69549    56.85533     0.70846
      1059 60554.44426    55.72701    56.93175     0.71377
      1060 60602.88781    55.77130    55.41063     0.72271
      1061 60651.37012    55.86240    55.83463     0.70852
      1062 60699.89122    55.96202    57.59127     0.68956
      1063 60748.45113    56.06774    55.56498     0.71704
      1064 60797.04989    56.19260    57.71522     0.70031
      1065 60845.68753    56.34912    55.85088     0.71978
      1066 60894.36408    56.55384    56.40051     0.70673
      1067 60943.07957    56.83431    58.27427     0.68681
      1068 60991.83404    57.25686    55.49624     0.72170
      1069 61040.62750    58.17253    57.16073     0.68131
      1070 61089.46001    60.50005    59.83637     0.67114
      1071 61138.33157    66.66308    64.47780     0.63129
      1072 61187.24224    80.75738    75.81833     0.54117
      1073 61236.19203   103.76981    96.00553     0.44004
      1074 61285.18099   126.30631   112.89006     0.38906
      1075 61334.20913   132.59581   114.73537     0.37808
      1076 61383.27650   119.74045   111.30007     0.38229
      1077 61432.38312    99.22947    92.95270     0.44976
      1078 61481.52903    81.78349    76.04029     0.53140
      1079 61530.71425    70.68980    67.03567     0.59679
      1080 61579.93882    64.62604    63.53172     0.61441
      1081 61629.20277    61.51849    62.94529     0.61418
      1082 61678.50613    59.96216    60.42217     0.64010
      1083 61727.84894    59.20745    61.08615     0.63848
      1084 61777.23122    58.89055    59.78826     0.63561
      1085 61826.65300    58.83999    59.52443     0.64374
      1086 61876.11432    58.97228    57.54440     0.65190
      1087 61925.61522    59.25280    56.42993     0.67926
      1088 61975.15571    59.68714    59.81905     0.62545
      1089 62024.73583    60.34066    60.31724     0.62072
      1090 62074.35562    61.47886    63.02112     0.59383
      1091 62124.01511    64.11117    63.34272     0.59450
      1092 62173.71432    71.05941    69.66330     0.54669
      1093 62223.45329    86.87582    84.75447     0.47146
      1094 62273.23205   113.01240   110.32952     0.37196
      1095 62323.05064   139.69212   135.00375     0.30928
      1096 62372.90908   148.92643   146.22511     0.28219
      1097 62422.80741   136.83460   135.08170     0.30087
      1098 62472.74565   117.02501   111.69716     0.36306
      1099 62522.72385   104.62463   104.32297     0.37772
      1100 62572.74203   113.19359   115.93238     0.34590
      1101 62622.80022   163.51416   168.48579     0.24357
      1102 62672.89846   278.13247   279.67560     0.15241
      1103 62723.03678   441.51885   443.00008     0.09747
      1104 62773.21521   563.61151   546.58660     0.07971
      1105 62823.43378   553.48948   532.28517     0.08151
      1106 62873.69253   436.10000   425.49780     0.10043
      1107 62923.99148   297.95561   298.67271     0.14069
      1108 62974.33068   194.08885   201.38204     0.20537
      1109 63024.71014   132.24076   141.58347     0.28097
      1110 63075.12991    99.74138   107.11048     0.36459
      1111 63125.59001    84.36826    93.04779     0.41277
      1112 63176.09048    79.05294    84.67733     0.44102
      1113 63226.63136    79.25625    86.34677     0.42814
      1114 63277.21266    80.11182    85.41123     0.43050
      1115 63327.83443    77.84624    81.93770     0.44999
      1116 63378.49670    72.88239    76.53181     0.47349
      1117 63429.19950    67.70395    69.05853     0.52006
      1118 63479.94286    63.86055    67.40939     0.52855
      1119 63530.72681    61.47898    63.54107     0.56344
      1120 63581.55139    60.09648    62.46276     0.55988
      1121 63632.41663    59.28228    59.83734     0.57155
      1122 63683.32257    58.77797    58.93830     0.58547
      1123 63734.26922    58.45187    57.57168     0.59091
      1124 63785.25664    58.24838    59.09472     0.59050
      1125 63836.28485    58.18074    58.16216     0.59680
      1126 63887.35387    58.39166    60.42271     0.56534
      1127 63938.46376    59.23170    59.54903     0.58243
      1128 63989.61453    61.08697    62.02803     0.56203
      1129 64040.80622    63.70303    66.46754     0.52174
      1130 64092.03886    65.67790    67.56495     0.51554
      1131 64143.31249    65.53995    68.84571     0.50711
      1132 64194.62714    63.58715    65.07909     0.52471
      1133 64245.98285    61.21332    60.25482     0.56978
      1134 64297.37963    59.37902    62.96930     0.52497
      1135 64348.81754    58.25999    61.37284     0.54211
      1136 64400.29659    57.65252    58.52920     0.57009
      1137 64451.81683    57.33631    59.43339     0.55378
      1138 64503.37828    56.97194    55.21380     0.60693
      1139 64554.98098    56.79879    58.21858     0.55905
      1140 64606.62497    56.80470    55.00985     0.60444
      1141 64658.31027    56.89498    56.76006     0.57322
      1142 64710.03692    56.95397    56.57725     0.57982
      1143 64761.80495    56.91058    58.43525     0.56137
      1144 64813.61439    56.79763    57.81414     0.56703
      1145 64865.46528    56.68349    56.65618     0.57609
      1146 64917.35765    56.60474    58.08718     0.55766
      1147 64969.29154    56.56274    55.98441     0.57232
      1148 65021.26697    56.53858    55.47225     0.58388
      1149 65073.28399    56.52893    59.17246     0.54283
      1150 65125.34261    56.52918    57.39603     0.55224
      1151 65177.44289    56.53434    54.47660     0.58292
      1152 65229.58484    56.54209    56.62684     0.55555
      1153 65281.76851    56.55130    56.64890     0.55837
      1154 65333.99393    56.56137    54.75540     0.57552
      1155 65386.26112    56.57197    58.17939     0.54508
      1156 65438.57013    56.58886    54.84414     0.56787
      1157 65490.92099    56.60964    55.41669     0.56160
      1158 65543.31372    56.62897    56.05106     0.55144
      1159 65595.74837    56.64501    56.90887     0.54358
      1160 65648.22497    56.65976    57.23267     0.54048
      1161 65700.74355    56.67409    57.63514     0.53871
      1162 65753.30415    56.68841    56.53936     0.54064
      1163 65805.90679    56.70289    56.63582     0.54746
      1164 65858.55152    56.71630    56.51525     0.53765
      1165 65911.23836    56.72784    57.65973     0.52854
      1166 65963.96735    56.74185    57.30632     0.53486
      1167 66016.73852    56.75729    57.61010     0.53282
      1168 66069.55191    56.77363    57.99009     0.52712
      1169 66122.40755    56.79067    57.03014     0.53318
      1170 66175.30548    56.80839    57.49289     0.52420
      1171 66228.24572    56.82685    57.09158     0.52710
      1172 66281.22832    56.84615    56.88669     0.51191
      1173 66334.25330    56.86646    54.30097     0.55958
      1174 66387.32071    56.88797    56.74418     0.52904
      1175 66440.43056    56.91095    58.28433     0.50450
      1176 66493.58291    56.93565    57.09634     0.51516
      1177 66546.77777    56.96254    56.62437     0.52675
      1178 66600.01520    56.99239    57.64672     0.51677
      1179 66653.29521    57.02733    58.17828     0.50722
      1180 66706.61784    57.06714    56.44542     0.52574
      1181 66759.98314    57.11264    55.71182     0.53634
      1182 66813.39112    57.16649    56.73072     0.50998
      1183 66866.84184    57.23228    55.08486     0.52727
      1184 66920.33531    57.31538    54.48957     0.53432
      1185 66973.87158    57.42542    56.35783     0.51324
      1186 67027.45068    57.58669    57.14948     0.49591
      1187 67081.07264    57.88498    57.86464     0.49339
      1188 67134.73750    58.61856    56.89020     0.50899
      1189 67188.44529    60.56636    60.49148     0.47778
      1190 67242.19604    64.98644    64.49503     0.45113
      1191 67295.98980    72.59648    67.33041     0.43659
      1192 67349.82659    81.35750    71.78095     0.42139
      1193 67403.70645    86.23844    75.27956     0.39565
      1194 67457.62942    84.03248    71.83933     0.41590
      1195 67511.59552    77.11368    67.13682     0.43656
      1196 67565.60480    69.76025    64.67182     0.44360
      1197 67619.65728    64.40518    60.62384     0.47527
      1198 67673.75301    61.26896    57.03012     0.49405
      1199 67727.89201    59.63969    60.36740     0.46688
      1200 67782.07432    58.83226    60.33450     0.46629
      1201 67836.29998    58.43476    60.10642     0.46747
      1202 67890.56902    58.24170    58.63029     0.47752
      1203 67944.88148    58.15603    59.30883     0.46362
      1204 67999.23738    58.13021    55.33374     0.50311
      1205 68053.63677    58.14012    57.84177     0.47642
      1206 68108.07968    58.17422    60.15193     0.45120
      1207 68162.56615    58.22795    59.75480     0.46218
      1208 68217.09620    58.30071    59.41169     0.46427
      1209 68271.66987    58.39525    57.31618     0.48552
      1210 68326.28721    58.52214    56.93138     0.48168
      1211 68380.94824    58.71670    59.08455     0.45983
      1212 68435.65300    59.07299    59.27992     0.46693
      1213 68490.40152    59.75656    59.78499     0.45886
      1214 68545.19384    60.89510    61.94067     0.44342
      1215 68600.03000    62.32270    61.59783     0.44002
      1216 68654.91002    63.43652    63.99882     0.43548
      1217 68709.83395    63.69055    64.65562     0.42115
      1218 68764.80182    63.27390    66.62938     0.41080
      1219 68819.81366    62.80119    62.64508     0.43579
      1220 68874.86951    62.74075    62.58416     0.43000
      1221 68929.96941    63.28318    61.16215     0.44181
      1222 68985.11338    64.87148    61.95761     0.43168
      1223 69040.30147    68.14058    63.84025     0.41933
      1224 69095.53371    75.69943    71.92659     0.37586
      1225 69150.81014    95.39484    90.51782     0.31259
      1226 69206.13079   140.02495   133.70597     0.22253
      1227 69261.49569   217.43963   216.84637     0.14250
      1228 69316.90489   310.44808   310.08537     0.10180
      1229 69372.35841   369.38695   369.52654     0.08537
      1230 69427.85630   355.00960   345.86596     0.09101
      1231 69483.39858   284.89087   280.74044     0.10988
      1232 69538.98530   203.88881   207.98376     0.14517
      1233 69594.61649   141.72969   144.87703     0.20334
      1234 69650.29218   104.02283   108.86982     0.26221
      1235 69706.01242    84.03385    91.52211     0.30032
      1236 69761.77723    73.99708    79.13692     0.33791
      1237 69817.58665    68.94492    72.66285     0.36243
      1238 69873.44072    66.34412    70.03408     0.37513
      1239 69929.33947    64.99033    64.91734     0.40239
      1240 69985.28294    64.29692    64.70770     0.39346
      1241 70041.27117    63.97362    62.53991     0.41690
      1242 70097.30419    63.88334    62.71756     0.40653
      1243 70153.38203    63.96798    64.80785     0.39848
      1244 70209.50474    64.20818    64.66041     0.39758
      1245 70265.67234    64.60489    62.55564     0.40968
      1246 70321.88488    65.17347    63.04295     0.41340
      1247 70378.14239    65.94397    65.27069     0.38734
      1248 70434.44490    66.96484    64.59867     0.39304
      1249 70490.79246    68.31061    66.28702     0.38560
      1250 70547.18509    70.09576    67.05166     0.37581
      1251 70603.62284    72.50521    67.60062     0.38052
      1252 70660.10574    75.89543    71.52087     0.35308
      1253 70716.63382    81.25272    75.44730     0.33843
      1254 70773.20713    91.99764    79.59960     0.33066
      1255 70829.82569   119.03106   102.61335     0.26227
      1256 70886.48955   188.23987   168.53236     0.16817
      1257 70943.19875   338.00097   318.16779     0.09254
      1258 70999.95330   585.68987   602.08831     0.04981
      1259 71056.75327   869.92225   936.80114     0.03209
      1260 71113.59867  1039.01898  1098.20044     0.02736
      1261 71170.48955   983.89751  1011.33984     0.02965
      1262 71227.42594   762.90162   748.12091     0.03969
      1263 71284.40788   510.70862   482.71419     0.06122
      1264 71341.43541   316.52081   297.97726     0.09737
      1265 71398.50856   197.82734   193.39018     0.14744
      1266 71455.62736   134.49123   139.82173     0.19586
      1267 71512.79186   102.55202   112.39335     0.23631
      1268 71570.00210    86.27487    96.38613     0.26900
      1269 71627.25810    77.57138    81.22460     0.31575
      1270 71684.55991    72.61175    79.33918     0.32239
      1271 71741.90755    69.55892    72.59258     0.34374
      1272 71799.30108    67.50947    72.00768     0.34330
      1273 71856.74052    66.02139    67.66339     0.37173
      1274 71914.22591    65.05637    68.55657     0.35825
      1275 71971.75729    64.33001    66.41470     0.36401
      1276 72029.33470    63.68719    66.64534     0.36335
      1277 72086.95817    63.14046    67.33903     0.36367
      1278 72144.62773    62.68273    63.67126     0.37981
      1279 72202.34344    62.30174    62.25938     0.38204
      1280 72260.10531    61.98536    62.87278     0.37736
      1281 72317.91340    61.72314    61.73972     0.38079
      1282 72375.76773    61.50660    61.66064     0.38624
      1283 72433.66834    61.32895    62.54812     0.37655
      1284 72491.61527    61.18506    62.03651     0.38327
      1285 72549.60857    61.07090    60.48924     0.39844
      1286 72607.64825    60.98348    58.73603     0.40173
      1287 72665.73437    60.92056    57.07837     0.41397
      1288 72723.86696    60.88064    57.80134     0.40192
      1289 72782.04605    60.97166    60.42877     0.38704
      1290 72840.27169    61.19331    63.16113     0.36522
      1291 72898.54391    61.35347    60.72427     0.37649
      1292 72956.86274    61.47621    60.09726     0.38237
      1293 73015.22823    61.60051    57.71584     0.40632
      1294 73073.64042    61.74465    59.62265     0.38418
      1295 73132.09933    61.91904    58.36794     0.38912
      1296 73190.60501    62.05941    59.90688     0.38593
      1297 73249.15749    61.88534    58.65057     0.39001
      1298 73307.75682    62.00480    61.25544     0.36641
      1299 73366.40302    62.33920    60.78728     0.37238
      1300 73425.09615    62.81961    59.11560     0.37889
      1301 73483.83622    63.43682    62.37618     0.36765
      1302 73542.62329    64.21379    63.15151     0.35675
      1303 73601.45739    65.19918    63.44380     0.35555
      1304 73660.33856    66.47515    65.41165     0.35016
      1305 73719.26683    68.19646    67.41229     0.33478
      1306 73778.24224    70.76167    68.43676     0.34272
      1307 73837.26483    75.48532    75.42467     0.30511
      1308 73896.33465    86.51175    93.68412     0.25341
      1309 73955.45171   114.02890   119.40389     0.20502
      1310 74014.61607   174.88543   189.73456     0.13419
      1311 74073.82777   282.12451   286.75048     0.09178
      1312 74133.08683   421.61641   416.18766     0.06360
      1313 74192.39330   535.45714   506.41517     0.05232
      1314 74251.74721   555.10395   524.81269     0.05009
      1315 74311.14861   474.72539   442.24999     0.05922
      1316 74370.59753   349.89470   336.83601     0.07686
      1317 74430.09401   236.91368   236.04641     0.10942
      1318 74489.63808   160.16349   172.48475     0.14338
      1319 74549.22979   117.08580   133.37235     0.18113
      1320 74608.86918    95.84245   111.58948     0.20859
      1321 74668.55627    86.52500    94.47009     0.24544
      1322 74728.29112    83.85103    95.60758     0.23805
      1323 74788.07375    86.92626    93.03777     0.24563
      1324 74847.90421   100.48413   111.44296     0.20976
      1325 74907.78253   137.54426   153.05996     0.15473
      1326 74967.70876   217.56731   234.17519     0.10419
      1327 75027.68293   350.22315   365.45003     0.06819
      1328 75087.70507   507.85585   499.34722     0.05032
      1329 75147.77524   615.39411   588.03992     0.04279
      1330 75207.89346   606.34076   562.47056     0.04471
      1331 75268.05977   496.23974   456.78159     0.05474
      1332 75328.27422   353.43260   331.38164     0.07441
      1333 75388.53684   233.58350   237.69489     0.10067
      1334 75448.84767   155.35704   171.57637     0.13485
      1335 75509.20675   111.87216   124.50980     0.18395
      1336 75569.61411    89.64416   104.75619     0.21015
      1337 75630.06980    78.42251    94.50050     0.22319
      1338 75690.57386    72.51252    84.47239     0.24782
      1339 75751.12632    69.16776    74.14989     0.28508
      1340 75811.72722    67.10665    72.69671     0.27991
      1341 75872.37660    65.71994    69.51165     0.29485
      1342 75933.07450    64.71192    68.71970     0.28770
      1343 75993.82096    63.93696    67.05665     0.29285
      1344 76054.61602    63.31999    61.69614     0.32926
      1345 76115.45971    62.81815    62.79995     0.31785
      1346 76176.35208    62.40388    65.29400     0.30251
      1347 76237.29316    62.05787    64.57015     0.30852
      1348 76298.28300    61.76598    63.13506     0.32103
      1349 76359.32162    61.51762    63.80937     0.31448
      1350 76420.40908    61.30469    59.21660     0.33928
      1351 76481.54541    61.06640    64.21670     0.30478
      1352 76542.73064    60.69146    63.18205     0.30184
      1353 76603.96483    60.46399    58.51698     0.33161
      1354 76665.24800    60.32035    64.73917     0.29677
      1355 76726.58020    60.21618    61.04861     0.32005
      1356 76787.96146    60.13330    60.92057     0.31765
      1357 76849.39183    60.06385    60.44203     0.31158
      1358 76910.87134    60.00411    60.85225     0.31557
      1359 76972.40004    59.95200    58.89990     0.31927
      1360 77033.97796    59.90645    59.52185     0.31601
      1361 77095.60514    59.86631    57.46929     0.33669
      1362 77157.28163    59.83093    61.49812     0.30989
      1363 77219.00745    59.79973    58.90676     0.31693
      1364 77280.78266    59.77226    61.22487     0.30341
      1365 77342.60729    59.86855    57.28903     0.32553
      1366 77404.48137    60.09075    59.32504     0.32009
      1367 77466.40496    60.16948    59.28707     0.31098
      1368 77528.37808    59.98653    60.78863     0.30264
      1369 77590.40078    59.91753    62.96680     0.28956
      1370 77652.47310    59.92019    59.66368     0.31304
      1371 77714.59508    59.95284    61.28103     0.29881
      1372 77776.76676    59.99950    60.42226     0.30449
      1373 77838.98817    60.05439    62.45268     0.29802
      1374 77901.25936    60.11661    66.63523     0.27270
      1375 77963.58037    60.18894    64.75230     0.28140
      1376 78025.95123    60.27817    62.54872     0.28975
      1377 78088.37199    60.39254    61.38092     0.29404
      1378 78150.84269    60.53547    60.19811     0.30064
      1379 78213.36337    60.69439    61.32774     0.29036
      1380 78275.93406    60.83846    58.27466     0.30240
      1381 78338.55480    60.94169    63.37542     0.27796
      1382 78401.22565    61.01221    60.76571     0.29121
      1383 78463.94663    61.08089    59.50991     0.28742
      1384 78526.71779    61.17457    60.20599     0.28914
      1385 78589.53916    61.30527    61.24434     0.28723
      1386 78652.41079    61.47414    62.98582     0.27870
      1387 78715.33272    61.67964    59.31432     0.29521
      1388 78778.30499    61.92249    62.45602     0.28022
      1389 78841.32763    62.30710    62.68777     0.27387
      1390 78904.40069    62.84811    61.23872     0.28710
      1391 78967.52421    63.36255    63.45234     0.27362
      1392 79030.69823    63.89574    61.18522     0.28259
      1393 79093.92279    64.50504    65.46775     0.25698
      1394 79157.19793    65.23396    64.87379     0.26033
      1395 79220.52369    66.12926    68.21514     0.25017
      1396 79283.90011    67.25270    66.43752     0.26053
      1397 79347.32723    68.69727    67.69687     0.25224
      1398 79410.80509    70.63390    73.89965     0.22862
      1399 79474.33373    73.49186    73.82352     0.23396
      1400 79537.91320    78.59999    81.76141     0.21263
      1401 79601.54353    89.91435    94.44078     0.18362
      1402 79665.22476   116.96893   120.72526     0.15134
      1403 79728.95694   176.28339   188.45568     0.09817
      1404 79792.74011   284.37657   302.63632     0.06341
      1405 79856.57430   438.43806   462.85044     0.04179
      1406 79920.45956   595.26275   610.38770     0.03188
      1407 79984.39593   678.02787   663.81157     0.02930
      1408 80048.38345   639.59709   608.15977     0.03203
      1409 80112.42215   510.94595   495.34306     0.03878
      1410 80176.51209   360.15241   362.70613     0.05200
      1411 80240.65330   237.36453   247.71213     0.07519
      1412 80304.84582   157.93586   180.37637     0.10023
      1413 80369.08970   114.10390   136.70111     0.12635
      1414 80433.38497    92.12716   113.02792     0.15019
      1415 80497.73168    81.44974    99.73124     0.16748
      1416 80562.12986    76.16769    91.38367     0.17652
      1417 80626.57957    73.43656    80.14468     0.19629
      1418 80691.08083    71.98452    75.74737     0.20980
      1419 80755.63370    71.26454    76.14523     0.20571
      1420 80820.23820    71.05654    71.22390     0.21771
      1421 80884.89439    71.29641    69.34817     0.22656
      1422 80949.60231    72.01852    75.36212     0.20453
      1423 81014.36199    73.40111    76.82604     0.19717
      1424 81079.17348    76.04448    79.37778     0.19399
      1425 81144.03682    81.85465    84.03567     0.18487
      1426 81208.95205    95.95084    97.31504     0.15934
      1427 81273.91921   128.82651   130.77368     0.12788
      1428 81338.93835   194.95052   204.32977     0.08260
      1429 81404.00950   302.59323   316.72613     0.05495
      1430 81469.13271   436.32503   458.42711     0.03787
      1431 81534.30801   546.52039   548.16459     0.03189
      1432 81599.53546   573.52068   562.40252     0.03077
      1433 81664.81509   505.26964   492.89988     0.03487
      1434 81730.14694   385.41284   370.60864     0.04577
      1435 81795.53106   266.77819   262.91805     0.06328
      1436 81860.96748   178.88378   183.17616     0.08891
      1437 81926.45625   125.34348   139.38960     0.11165
      1438 81991.99742    96.71531   105.64587     0.14075
      1439 82057.59102    82.37968    94.40999     0.15708
      1440 82123.23709    75.20897    81.93790     0.17537
      1441 82188.93568    71.42564    71.85505     0.19981
      1442 82254.68683    69.24881    71.40867     0.19811
      1443 82320.49058    67.87051    69.79927     0.19843
      1444 82386.34697    66.93396    67.06507     0.19925
      1445 82452.25605    66.28029    66.12273     0.20156
      1446 82518.21785    65.83901    64.65950     0.21082
      1447 82584.23243    65.34943    66.54344     0.20545
      1448 82650.29981    65.12613    71.17892     0.18898
      1449 82716.42005    65.40358    70.54066     0.19033
      1450 82782.59319    66.57196    67.94498     0.20274
      1451 82848.81926    69.77194    70.38472     0.19353
      1452 82915.09832    77.08576    78.44557     0.17531
      1453 82981.43040    90.83141    97.81137     0.14514
      1454 83047.81554   111.34977   127.17011     0.11393
      1455 83114.25379   134.20480   153.92904     0.09446
      1456 83180.74520   149.74249   161.79691     0.09055
      1457 83247.28979   149.38826   166.49622     0.08677
      1458 83313.88763   134.18111   141.29251     0.10247
      1459 83380.53874   112.64904   118.31763     0.11888
      1460 83447.24317    93.00520    93.48116     0.14677
      1461 83514.00096    79.11629    83.30558     0.15884
      1462 83580.81216    70.90811    73.34326     0.17694
      1463 83647.67681    66.60613    71.59291     0.17799
      1464 83714.59495    64.47733    65.01954     0.18710
      1465 83781.56663    63.41627    67.06371     0.18287
      1466 83848.59188    62.85642    60.71957     0.19646
      1467 83915.67076    62.54618    65.90414     0.18951
      1468 83982.80329    62.38358    62.34992     0.19999
      1469 84049.98953    62.35449    61.17509     0.19946
      1470 84117.22953    62.54933    67.99857     0.18053
      1471 84184.52331    63.21399    65.10090     0.18916
      1472 84251.87093    64.60480    64.35800     0.18804
      1473 84319.27243    67.23680    68.70269     0.17391
      1474 84386.72784    71.19909    70.98198     0.17306
      1475 84454.23723    75.40176    72.86636     0.16875
      1476 84521.80062    77.93659    70.57606     0.17257
      1477 84589.41806    77.39206    73.77589     0.16435
      1478 84657.08959    74.26654    67.98369     0.17553
      1479 84724.81526    70.27959    68.64597     0.17132
      1480 84792.59511    66.98729    63.70771     0.18413
      1481 84860.42919    65.17219    62.54820     0.18697
      1482 84928.31753    64.91245    68.30124     0.16813
      1483 84996.26019    65.83474    68.33874     0.16614
      1484 85064.25720    67.21857    71.52348     0.15815
      1485 85132.30860    68.10706    63.11956     0.18454
      1486 85200.41445    67.81925    68.46949     0.16666
      1487 85268.57478    66.48735    62.03112     0.17948
      1488 85336.78964    64.77165    64.29254     0.17470
      1489 85405.05907    63.25929    59.18481     0.18642
      1490 85473.38312    62.20671    62.26336     0.17581
      1491 85541.76183    61.58749    63.31256     0.17029
      1492 85610.19523    61.26483    63.31131     0.17319
      1493 85678.68339    61.10782    58.72151     0.18680
      1494 85747.22634    61.03328    60.15990     0.17798
      1495 85815.82412    60.99868    61.03467     0.17662
      1496 85884.47678    60.98479    64.25472     0.16372
      1497 85953.18436    60.98209    64.20948     0.16359
      1498 86021.94691    60.94724    58.03486     0.17842
      1499 86090.76446    60.94373    64.65255     0.16361
      1500 86159.63708    60.96427    59.06202     0.17954
      1501 86228.56479    61.00009    59.92118     0.17609
      1502 86297.54764    61.05047    62.18876     0.16984
      1503 86366.58568    61.12056    60.87072     0.16962
      1504 86435.67894    61.22758    60.88974     0.16841
      1505 86504.82749    61.42377    62.14281     0.16607
      1506 86574.03135    61.84758    65.70272     0.15173
      1507 86643.29057    62.79373    59.55851     0.17175
      1508 86712.60521    64.71842    61.98855     0.16514
      1509 86781.97529    68.03178    67.23268     0.15794
      1510 86851.40087    72.63081    69.43889     0.14908
      1511 86920.88199    77.42111    77.06131     0.13958
      1512 86990.41870    80.39218    82.84949     0.12587
      1513 87060.01103    79.98428    76.13401     0.13920
      1514 87129.65904    76.60402    76.31727     0.13674
      1515 87199.36277    72.01650    66.97106     0.15599
      1516 87269.12226    67.85637    68.54386     0.14901
      1517 87338.93756    64.90017    63.60122     0.15792
      1518 87408.80871    63.13795    65.36531     0.15060
      1519 87478.73575    62.22402    58.37552     0.16673
      1520 87548.71874    61.79562    59.65069     0.16183
      1521 87618.75772    61.61078    62.79740     0.15591
      1522 87688.85272    61.54411    63.89729     0.14996
      1523 87759.00381    61.54051    62.27395     0.15378
      1524 87829.21101    61.58096    60.70163     0.16244
      1525 87899.47438    61.66908    65.74757     0.14660
      1526 87969.79396    61.84061    62.90994     0.15711
      1527 88040.16979    62.20577    61.32059     0.15675
      1528 88110.60193    63.04443    66.79999     0.14481
      1529 88181.09041    64.89180    64.12761     0.15597
      1530 88251.63528    68.46384    68.59357     0.14469
      1531 88322.23659    74.23118    73.27793     0.13494
      1532 88392.89438    81.67153    81.97834     0.12769
      1533 88463.60869    88.69021    88.38691     0.11716
      1534 88534.37958    92.15584    94.38531     0.11023
      1535 88605.20709    90.29147    91.04081     0.11624
      1536 88676.09125    84.35133    78.34784     0.13119
      1537 88747.03212    77.13819    75.48179     0.13681
      1538 88818.02975    70.92025    70.65475     0.14234
      1539 88889.08417    66.62337    63.72487     0.15592
      1540 88960.19544    64.10011    62.20682     0.15677
      1541 89031.36360    62.77692    59.41687     0.16272
      1542 89102.58869    62.12127    59.70560     0.16459
      1543 89173.87076    61.79328    60.32789     0.16148
      1544 89245.20986    61.61676    57.89836     0.16892
      1545 89316.60602    61.51081    62.47816     0.16102
      1546 89388.05931    61.44022    64.06370     0.15892
      1547 89459.56976    61.38962    61.35552     0.15730
      1548 89531.13741    61.35179    65.73869     0.14619
      1549 89602.76232    61.32295    61.48701     0.16372
      1550 89674.44453    61.30083    60.89085     0.16211
      1551 89746.18409    61.28386    61.73349     0.16158
      1552 89817.98103    61.27096    59.45561     0.16418
      1553 89889.83542    61.26128    59.42799     0.16299
      1554 89961.74729    61.25421    58.56771     0.16381
      1555 90033.71669    61.24342    54.26970     0.18050
      1556 90105.74366    61.23290    63.90958     0.15261
      1557 90177.82825    61.22933    62.28441     0.15139
      1558 90249.97052    61.22867    61.39665     0.15355
      1559 90322.17049    61.22958    62.88602     0.14942
      1560 90394.42823    61.23150    65.91394     0.14607
      1561 90466.74377    61.23419    60.61930     0.16163
      1562 90539.11717    61.23751    61.45779     0.15802
      1563 90611.54846    61.24136    60.87441     0.15858
      1564 90684.03770    61.24565    61.69499     0.14912
      1565 90756.58493    61.25033    54.91779     0.17247
      1566 90829.19020    61.25535    59.61017     0.15864
      1567 90901.85355    61.26067    62.08201     0.14651
      1568 90974.57503    61.26624    60.24667     0.15492
      1569 91047.35469    61.27204    58.71777     0.15516
      1570 91120.19258    61.27804    64.03471     0.14897
      1571 91193.08873    61.28421    64.54924     0.14282
      1572 91266.04320    61.29054    65.30113     0.14186
      1573 91339.05604    61.29701    62.35438     0.14446
      1574 91412.12728    61.30360    58.67095     0.16069
      1575 91485.25698    61.31029    63.91829     0.13930
      1576 91558.44519    61.31708    61.45225     0.14113
      1577 91631.69194    61.31989    60.91828     0.14391
      1578 91704.99730    61.31246    62.36744     0.14532
      1579 91778.36130    61.31473    60.76400     0.14974
      1580 91851.78398    61.32097    63.61016     0.13928
      1581 91925.26541    61.32851    61.70093     0.14543
      1582 91998.80562    61.33648    62.45459     0.14109
      1583 92072.40467    61.34457    58.53920     0.14981
      1584 92146.06259    61.35269    61.90064     0.14484
      1585 92219.77944    61.36081    63.45726     0.13816
      1586 92293.55527    61.36892    67.61928     0.12978
      1587 92367.39011    61.37700    60.64452     0.14705
      1588 92441.28402    61.38506    57.42384     0.15363
      1589 92515.23705    61.39309    63.42596     0.14022
      1590 92589.24924    61.40111    57.31544     0.14795
      1591 92663.32064    61.40911    62.62003     0.14310
      1592 92737.45129    61.41708    59.90818     0.14523
      1593 92811.64126    61.42503    59.65117     0.14763
      1594 92885.89057    61.43297    69.62237     0.12563
      1595 92960.19928    61.44088    57.84004     0.14773
      1596 93034.56744    61.72728    61.52415     0.14102
      1597 93108.99509    62.20450    63.13249     0.13464
      1598 93183.48229    62.46120    63.63123     0.13670
      1599 93258.02908    62.58130    63.63216     0.13003
      1600 93332.63550    62.66006    58.82966     0.14362
      1601 93407.30161    62.72810    64.74720     0.13188
      1602 93482.02745    62.79542    67.00790     0.12433
      1603 93556.81307    62.86536    62.37413     0.13346
      1604 93631.65852    62.93940    64.05139     0.13005
      1605 93706.56385    63.01859    70.63298     0.11325
      1606 93781.52910    63.10352    63.62653     0.12767
      1607 93856.55432    63.19461    61.90840     0.13523
      1608 93931.63957    63.29224    66.48728     0.12677
      1609 94006.78488    63.39687    63.59638     0.12734
      1610 94081.99031    63.50930    68.30854     0.11651
      1611 94157.25590    63.63071    66.23079     0.12203
      1612 94232.58170    63.76252    64.72672     0.12367
      1613 94307.96777    63.90624    62.14481     0.12866
      1614 94383.41414    64.06348    63.17541     0.12819
      1615 94458.92087    64.23598    62.91755     0.12632
      1616 94534.48801    64.42580    60.99327     0.12994
      1617 94610.11560    64.63535    62.67014     0.12872
      1618 94685.80369    64.86753    72.10412     0.10793
      1619 94761.55234    65.12583    63.13053     0.12522
      1620 94837.36158    65.41444    63.61050     0.12550
      1621 94913.23147    65.73845    66.88083     0.11958
      1622 94989.16205    66.10402    70.02922     0.11030
      1623 95065.15338    66.51875    68.52328     0.11200
      1624 95141.20551    66.99203    60.91692     0.13040
      1625 95217.31847    67.53559    62.46229     0.13036
      1626 95293.49232    68.16425    69.30185     0.11358
      1627 95369.72712    68.89687    65.73285     0.12260
      1628 95446.02290    70.70310    71.48258     0.10844
      1629 95522.37972    73.24570    67.41519     0.11470
      1630 95598.79762    75.37905    71.39963     0.11168
      1631 95675.27666    77.39117    71.93061     0.11111
      1632 95751.81688    79.67471    66.60732     0.12101
      1633 95828.41834    82.29138    76.21172     0.10309
      1634 95905.08107    85.51367    78.66484     0.09855
      1635 95981.80513    89.90352    81.42617     0.09423
      1636 96058.59058    96.80515    83.78131     0.09344
      1637 96135.43745   109.69508    94.04839     0.08369
      1638 96212.34580   136.55237   117.25953     0.07073
      1639 96289.31568   192.32420   167.87637     0.05038
      1640 96366.34713   298.06684   276.75885     0.03274
      1641 96443.44021   471.94958   451.29837     0.02011
      1642 96520.59496   711.36785   744.50422     0.01229
      1643 96597.81144   974.43785  1020.10124     0.00907
      1644 96675.08969  1176.65567  1201.24006     0.00770
      1645 96752.42976  1228.41511  1221.84401     0.00750
      1646 96829.83170  1108.29938  1065.84606     0.00857
      1647 96907.29557   878.45439   854.57463     0.01054
      1648 96984.82140   626.71377   590.66636     0.01529
      1649 97062.40926   416.38459   403.69474     0.02182
      1650 97140.05919   271.23457   272.97151     0.03185
      1651 97217.77123   185.07038   199.24658     0.04264
      1652 97295.54545   139.51986   153.07801     0.05380
      1653 97373.38189   117.18366   126.40128     0.06290
      1654 97451.28059   106.51624   118.84113     0.06602
      1655 97529.24162   101.34343   112.62099     0.06913
      1656 97607.26501    98.81497    98.13360     0.07691
      1657 97685.35082    97.73253    91.53013     0.08366
      1658 97763.49910    97.61231    97.27794     0.07665
      1659 97841.70990    98.26504    97.50321     0.07746
      1660 97919.98327    99.63166    96.97552     0.07904
      1661 97998.31926   101.72174    92.03101     0.08120
      1662 98076.71791   104.59674    87.87512     0.08696
      1663 98155.17929   108.37040    89.18107     0.08386
      1664 98233.70343   113.21996    96.90497     0.07487
      1665 98312.29039   119.41265    92.73907     0.08142
      1666 98390.94023   127.37427   103.85530     0.07227
      1667 98469.65298   137.90155   108.47507     0.07076
      1668 98548.42870   152.83425   121.78134     0.06398
      1669 98627.26744   176.94759   141.26134     0.05839
      1670 98706.16926   222.29513   187.59214     0.04321
      1671 98785.13419   315.61672   262.27667     0.03191
      1672 98864.16230   505.71483   452.91787     0.01877
      1673 98943.25363   860.72971   782.18147     0.01116
      1674 99022.40823  1441.68017  1398.52104     0.00622
      1675 99101.62616  2249.91699  2260.74458     0.00389
      1676 99180.90746  3170.59382  3227.80222     0.00271
      1677 99260.25219  3954.61507  4003.92939     0.00216
      1678 99339.66039  4310.01541  4246.72167     0.00204
      1679 99419.13212  4113.43250  4000.52993     0.00217
      1680 99498.66742  3494.47126  3343.72934     0.00258
      1681 99578.26636  2690.91081  2636.78865     0.00324
      1682 99657.92897  1907.97919  1882.51370     0.00455
      1683 99737.65531  1268.73184  1316.94826     0.00639
      1684 99817.44544   811.15274   890.07830     0.00947
      1685 99897.29939   515.22913   608.55219     0.01363
      1686 99977.21723   338.27525   419.06018     0.01955
      1687 100057.19901   238.24881   308.03076     0.02615
      1688 100137.24477   183.19118   243.15774     0.03222
      1689 100217.35456   152.38203   183.44699     0.04196
      1690 100297.52844   133.96882   153.91967     0.04907
      1691 100377.76647   121.34800   140.62357     0.05112
      1692 100458.06868   112.25271   126.42848     0.05687
      1693 100538.43514   105.43491   106.65455     0.06758
      1694 100618.86588   100.02188   101.84975     0.06902
      1695 100699.36098    95.59254    86.87577     0.08028
      1696 100779.92047    91.90319    89.67282     0.07694
      1697 100860.54440    88.79262    87.45824     0.07815
      1698 100941.23284    86.14469    84.40778     0.08106
      1699 101021.98582    83.87175    83.21015     0.08166
      1700 101102.80341    81.90643    86.38896     0.07685
      1701 101183.68565    80.19610    80.71902     0.08253
      1702 101264.63260    78.69962    78.54933     0.08222
      1703 101345.64431    77.38184    81.65335     0.07818
      1704 101426.72082    76.21556    74.21367     0.08510
      1705 101507.86220    75.17854    64.78975     0.10047
      1706 101589.06849    74.25249    66.35378     0.09771
      1707 101670.33975    73.42222    73.62208     0.08531
      1708 101751.67602    72.67507    66.92808     0.09732
      1709 101833.07736    72.00039    64.89680     0.09616
      1710 101914.54382    71.38917    69.09133     0.08993
      1711 101996.07546    70.83378    68.20088     0.08929
      1712 102077.67232    70.32767    64.07989     0.09624
      1713 102159.33445    69.86530    70.66797     0.09199
      1714 102241.06192    69.44180    61.91502     0.09898
      1715 102322.85477    69.05297    67.38822     0.09283
      1716 102404.71305    68.69516    61.93182     0.09997
      1717 102486.63683    68.36521    64.67880     0.09499
      1718 102568.62613    68.06034    71.08627     0.08788
      1719 102650.68104    67.77811    65.41515     0.09456
      1720 102732.80158    67.51651    67.05880     0.09259
      1721 102814.98782    67.27358    66.55416     0.09110
      1722 102897.23981    67.04752    63.05316     0.09491
      1723 102979.55760    66.83683    64.02397     0.09351
      1724 103061.94125    66.63419    63.14111     0.09388
      1725 103144.39080    65.08391    64.08615     0.09315
      1726 103226.90632    63.44021    60.23695     0.09482
      1727 103309.48784    62.99072    58.66470     0.10188
      1728 103392.13543    62.73845    60.82171     0.09791
      1729 103474.84914    62.41380    58.23172     0.10087
      1730 103557.62902    62.33090    64.06608     0.09555
      1731 103640.47512    62.31091    62.61925     0.09371
      1732 103723.38750    62.30924    64.63522     0.09077
      1733 103806.36621    62.31211    63.53361     0.09440
      1734 103889.41130    62.31623    64.36326     0.09086
      1735 103972.52283    62.32086    59.84780     0.09995
      1736 104055.70085    62.32546    64.68332     0.09080
      1737 104138.94541    62.33004    61.35859     0.09325
      1738 104222.25657    62.33460    68.23318     0.08179
      1739 104305.63437    62.33913    65.35843     0.08766
      1740 104389.07888    62.34364    65.03283     0.08939
      1741 104472.59015    62.34812    59.94788     0.09692
      1742 104556.16822    62.35258    65.35812     0.08649
      1743 104639.81315    62.35702    59.00394     0.09642
      1744 104723.52500    62.36143    62.87117     0.09097
      1745 104807.30382    62.36582    61.17441     0.09275
      1746 104891.14967    62.37018    60.17501     0.09389
      1747 104975.06259    62.37452    65.85157     0.08427
      1748 105059.04264    62.37884    61.83389     0.09054
      1749 105143.08987    62.38313    66.57979     0.08455
      1750 105227.20434    62.38740    62.79391     0.08595
      1751 105311.38610    62.39164    62.89944     0.08536
      1752 105395.63521    62.39587    64.81289     0.08373
      1753 105479.95172    62.40006    58.44229     0.09113
      1754 105564.33568    62.40424    60.58692     0.09244
      1755 105648.78715    62.40839    69.13852     0.07809
      1756 105733.30618    62.41251    64.04715     0.08477
      1757 105817.89283    62.41662    66.71573     0.08067
      1758 105902.54714    62.42070    64.62877     0.08565
      1759 105987.26918    62.42475    66.17352     0.07980
      1760 106072.05899    62.42878    66.33642     0.07736
      1761 106156.91664    62.43279    60.13117     0.08820
      1762 106241.84217    62.43678    54.98635     0.09386
      1763 106326.83565    62.44074    57.56885     0.09010
      1764 106411.89712    62.44467    57.08120     0.09037
      1765 106497.02663    62.44859    62.65449     0.08192
      1766 106582.22426    62.45248    67.30892     0.07659
      1767 106667.49003    62.45635    66.66866     0.07583
      1768 106752.82403    62.46019    62.72761     0.08128
      1769 106838.22629    62.46401    67.68037     0.07586
      1770 106923.69687    62.46781    56.66380     0.08848
      1771 107009.23582    62.47158    62.26878     0.08095
      1772 107094.84321    62.47534    62.88672     0.07601
      1773 107180.51909    62.47906    64.58167     0.07575
      1774 107266.26350    62.48277    64.53896     0.07756
      1775 107352.07651    62.48645    65.44917     0.07723
      1776 107437.95817    62.49011    68.61092     0.06994
      1777 107523.90854    62.49375    56.48532     0.08649
      1778 107609.92767    62.49736    60.18483     0.08052
      1779 107696.01561    62.50095    61.41175     0.07921
      1780 107782.17242    62.50452    58.54267     0.08512
      1781 107868.39816    62.50806    66.75405     0.07198
      1782 107954.69288    62.51158    66.55110     0.07392
      1783 108041.05663    62.51508    63.87679     0.07514
      1784 108127.48948    62.51856    62.11887     0.07820
      1785 108213.99147    62.52201    62.46991     0.07879
      1786 108300.56266    62.52544    68.63392     0.06953
      1787 108387.20311    62.52885    64.49359     0.07536
      1788 108473.91288    62.53223    62.87964     0.07448
      1789 108560.69201    62.53560    63.85584     0.07741
      1790 108647.54056    62.53894    68.73929     0.07043
      1791 108734.45859    62.54225    61.64734     0.07640
      1792 108821.44616    62.54555    55.82612     0.08316
      1793 108908.50332    62.54882    68.26968     0.07152
      1794 108995.63012    62.55207    61.13795     0.07823
      1795 109082.82662    62.55530    66.19242     0.06976
      1796 109170.09288    62.55851    72.11644     0.06525
      1797 109257.42896    62.56170    63.64018     0.07372
      1798 109344.83490    62.56486    62.99466     0.07201
      1799 109432.31077    62.56800    62.06342     0.07322
      1800 109519.85662    62.57112    69.01397     0.06485
      1801 109607.47250    62.57422    58.40553     0.08078
      1802 109695.15848    62.57729    55.53053     0.07800
      1803 109782.91461    62.58034    67.75347     0.06494
      1804 109870.74094    62.58338    58.40302     0.07581
      1805 109958.63753    62.58639    62.96094     0.07322
      1806 110046.60444    62.58937    66.20757     0.06820
      1807 110134.64173    62.59234    57.48951     0.07901
      1808 110222.74944    62.59529    70.28601     0.06171
      1809 110310.92764    62.59821    62.68648     0.06832
      1810 110399.17638    62.60112    62.03372     0.07216
      1811 110487.49572    62.60400    63.03506     0.07270
      1812 110575.88572    62.60686    53.45090     0.08246
      1813 110664.34643    62.60970    63.82791     0.06905
      1814 110752.87791    62.61252    62.29430     0.07100
      1815 110841.48021    62.61531    64.85821     0.06973
      1816 110930.15339    62.61809    68.93042     0.06325
      1817 111018.89751    62.62085    62.99312     0.07102
      1818 111107.71263    62.62358    61.14160     0.06943
      1819 111196.59880    62.62630    74.64896     0.05568
      1820 111285.55608    62.62899    66.53498     0.06265
      1821 111374.58453    62.63166    67.05781     0.06321
      1822 111463.68419    62.63432    63.27809     0.06605
      1823 111552.85514    62.63695    60.94213     0.06927
      1824 111642.09743    62.63956    70.43986     0.05869
      1825 111731.41110    62.64215    61.74191     0.06717
      1826 111820.79623    62.64473    62.51216     0.06584
      1827 111910.25287    62.64728    61.92357     0.06370
      1828 111999.78107    62.64981    62.09359     0.06449
      1829 112089.38090    62.65232    74.78045     0.05351
      1830 112179.05240    62.65481    64.25117     0.06204
      1831 112268.79564    62.65729    65.16616     0.05960
      1832 112358.61068    62.65974    58.67054     0.06844
      1833 112448.49757    62.66217    62.65464     0.06213
      1834 112538.45637    62.66459    61.54962     0.06275
      1835 112628.48713    62.66698    61.28317     0.06314
      1836 112718.58992    62.66936    51.44886     0.07611
      1837 112808.76479    62.67171    62.05688     0.06276
      1838 112899.01180    62.67405    63.94793     0.06060
      1839 112989.33101    62.67637    57.30049     0.06809
      1840 113079.72248    62.67867    61.65810     0.06079
      1841 113170.18626    62.68095    57.60004     0.06704
      1842 113260.72241    62.68321    58.19721     0.06848
      1843 113351.33098    62.68545    57.63295     0.06723
      1844 113442.01205    62.68768    58.67031     0.06701
      1845 113532.76566    62.68988    72.03957     0.05555
      1846 113623.59187    62.69207    67.55297     0.05473
      1847 113714.49074    62.69424    57.21290     0.07145
      1848 113805.46234    62.69639    58.73603     0.06338
      1849 113896.50671    62.69852    54.73123     0.06882
      1850 113987.62391    62.70064    59.59500     0.06434
      1851 114078.81401    62.70274    63.86971     0.05931
      1852 114170.07706    62.70482    70.41288     0.05256
      1853 114261.41312    62.70688    64.09125     0.06139
      1854 114352.82225    62.70893    56.77265     0.06809
      1855 114444.30451    62.71095    65.48811     0.05706
      1856 114535.85996    62.71296    69.71397     0.05680
      1857 114627.48864    62.71496    62.82252     0.05960
      1858 114719.19064    62.71693    67.06028     0.05504
      1859 114810.96599    62.71889    63.07045     0.05858
      1860 114902.81476    62.72084    67.21092     0.05716
      1861 114994.73701    62.72276    65.20526     0.05564
      1862 115086.73280    62.72467    65.38720     0.05856
      1863 115178.80219    62.72656    62.42387     0.05844
      1864 115270.94523    62.72844    64.57116     0.05830
      1865 115363.16199    62.73030    59.13479     0.06141
      1866 115455.45252    62.73215    70.68295     0.05075
      1867 115547.81688    62.73397    72.88622     0.04959
      1868 115640.25513    62.73579    59.56038     0.06030
      1869 115732.76734    62.73758    59.12549     0.06185
      1870 115825.35355    62.73936    59.92812     0.06039
      1871 115918.01383    62.74113    63.20949     0.05615
      1872 116010.74824    62.74288    66.45311     0.05475
      1873 116103.55684    62.74462    67.17309     0.05339
      1874 116196.43969    62.74634    71.90999     0.05090
      1875 116289.39684    62.74804    67.44499     0.05478
      1876 116382.42836    62.74973    68.54164     0.05327
      1877 116475.53430    62.75141    62.74624     0.05848
      1878 116568.71473    62.75307    61.84081     0.05568
      1879 116661.96970    62.75472    60.99207     0.05799
      1880 116755.29927    62.75635    64.73663     0.05442
      1881 116848.70351    62.75797    62.62291     0.05796
      1882 116942.18248    62.75958    63.96228     0.05510
      1883 117035.73622    62.76117    67.30401     0.05388
      1884 117129.36481    62.76275    65.67948     0.05285
      1885 117223.06830    62.76431    64.13126     0.05533
      1886 117316.84676    62.76586    64.37423     0.05250
      1887 117410.70023    62.76740    64.26701     0.05404
      1888 117504.62880    62.76892    64.00196     0.05602
      1889 117598.63250    62.77044    68.02711     0.05065
      1890 117692.71140    62.77193    66.22328     0.05251
      1891 117786.86557    62.77342    63.96941     0.05282
      1892 117881.09507    62.77490    69.21516     0.05088
      1893 117975.39994    62.77636    61.67744     0.05380
      1894 118069.78026    62.77781    67.60713     0.04971
      1895 118164.23609    62.77924    60.05250     0.05258
      1896 118258.76747    62.78067    61.86648     0.05503
      1897 118353.37449    62.78209    61.67911     0.05316
      1898 118448.05719    62.78349    62.63280     0.05107
      1899 118542.81563    62.78488    64.66539     0.05228
      1900 118637.64989    62.78626    73.69056     0.04456
      1901 118732.56001    62.78763    63.24228     0.05293
      1902 118827.54605    62.79040    57.31919     0.05974
      1903 118922.60809    62.79369    63.01587     0.05158
      1904 119017.74618    62.79576    59.87970     0.05522
      1905 119112.96037    62.79737    63.48502     0.05004
      1906 119208.25074    62.79887    59.89738     0.05399
      1907 119303.61734    62.80035    61.84396     0.05308
      1908 119399.06024    62.80182    54.80655     0.05877
      1909 119494.57949    62.80329    58.57651     0.05412
      1910 119590.17515    62.80476    66.73231     0.04846
      1911 119685.84729    62.80623    65.13722     0.04799
      1912 119781.59597    62.80770    67.30803     0.04734
      1913 119877.42124    62.80918    64.31421     0.04692
      1914 119973.32318    62.81066    62.24346     0.05001
      1915 120069.30184    62.81215    54.01374     0.05628
      1916 120165.35728    62.81365    60.14897     0.04995
      1917 120261.48957    62.81516    67.25614     0.04490
      1918 120357.69876    62.81667    75.87755     0.04010
      1919 120453.98492    62.81821    66.45985     0.04450
      1920 120550.34811    62.81975    65.33497     0.04790
      1921 120646.78838    62.82132    66.86078     0.04575
      1922 120743.30581    62.82291    61.06503     0.04904
      1923 120839.90046    62.82452    63.30290     0.04797
      1924 120936.57238    62.82615    62.71780     0.04934
      1925 121033.32164    62.82782    62.94853     0.05060
      1926 121130.14829    62.82953    59.31227     0.05215
      1927 121227.05241    62.83127    69.55833     0.04363
      1928 121324.03406    62.83306    65.79689     0.04400
      1929 121421.09328    62.83490    54.13087     0.05668
      1930 121518.23016    62.83680    63.96926     0.04620
      1931 121615.44474    62.83877    58.55627     0.05054
      1932 121712.73710    62.84081    63.90772     0.04553
      1933 121810.10729    62.84294    63.70058     0.04366
      1934 121907.55537    62.84518    65.40235     0.04452
      1935 122005.08142    62.84753    66.09553     0.04272
      1936 122102.68548    62.85001    59.82305     0.04838
      1937 122200.36763    62.85265    69.96461     0.04060
      1938 122298.12792    62.85547    60.80723     0.04640
      1939 122395.96643    62.85851    59.95859     0.04772
      1940 122493.88320    62.86179    61.94551     0.04581
      1941 122591.87831    62.86538    61.86969     0.04479
      1942 122689.95181    62.86931    62.66803     0.04464
      1943 122788.10377    62.87367    70.52423     0.03992
      1944 122886.33425    62.87855    64.62687     0.04313
      1945 122984.64332    62.88405    62.78421     0.04449
      1946 123083.03104    62.89034    66.10720     0.04286
      1947 123181.49746    62.89759    63.61470     0.04442
      1948 123280.04266    62.90613    63.03194     0.04148
      1949 123378.66669    62.91647    62.49809     0.04620
      1950 123477.36963    62.92965    69.28227     0.04000
      1951 123576.15152    62.94792    62.21588     0.04347
      1952 123675.01244    62.97628    77.76567     0.03829
      1953 123773.95245    63.02495    66.12293     0.04162
      1954 123872.97162    63.11294    63.88272     0.04536
      1955 123972.06999    63.27090    58.15079     0.04813
      1956 124071.24765    63.54019    61.74273     0.04278
      1957 124170.50465    63.96392    59.07751     0.04448
      1958 124269.84105    64.56643    66.60714     0.03853
      1959 124369.25692    65.32822    63.12942     0.03983
      1960 124468.75233    66.16417    62.78049     0.04058
      1961 124568.32733    66.91776    70.16261     0.03672
      1962 124667.98199    67.38891    57.35062     0.04427
      1963 124767.71638    67.42138    62.39890     0.04127
      1964 124867.53055    67.00809    69.10761     0.03808
      1965 124967.42458    66.29108    72.17094     0.03432
      1966 125067.39852    65.46429    60.38783     0.04177
      1967 125167.45243    64.69038    69.57548     0.03554
      1968 125267.58640    64.06513    68.99103     0.03628
      1969 125367.80046    63.61707    69.35852     0.03710
      1970 125468.09471    63.32722    62.94640     0.03730
      1971 125568.46918    63.15493    62.35066     0.03996
      1972 125668.92396    63.05855    60.44583     0.04217
      1973 125769.45910    63.00594    72.05887     0.03275
      1974 125870.07466    62.97650    56.97377     0.04098
      1975 125970.77072    62.95875    73.41842     0.03292
      1976 126071.54734    62.94693    64.78855     0.03673
      1977 126172.40458    62.93836    66.67001     0.03682
      1978 126273.34250    62.93179    64.90756     0.03682
      1979 126374.36117    62.92660    65.78729     0.03761
      1980 126475.46066    62.92246    61.89993     0.03754
      1981 126576.64103    62.91913    56.19510     0.04019
      1982 126677.90235    62.91646    63.38080     0.03706
      1983 126779.24467    62.91434    63.40872     0.03691
      1984 126880.66806    62.91267    64.16066     0.03491
      1985 126982.17260    62.91137    63.92428     0.03764
      1986 127083.75834    62.91039    64.14815     0.03464
      1987 127185.42534    62.90968    65.62839     0.03646
      1988 127287.17368    62.90920    61.61293     0.03823
      1989 127389.00342    62.90892    65.26739     0.03522
      1990 127490.91462    62.90882    67.13785     0.03550
      1991 127592.90736    62.90886    65.83085     0.03435
      1992 127694.98168    62.90904    65.26744     0.03503
      1993 127797.13767    62.90934    66.89405     0.03409
      1994 127899.37538    62.90975    59.88971     0.03815
      1995 128001.69488    62.91025    64.96468     0.03608
      1996 128104.09623    62.91084    66.91116     0.03528
      1997 128206.57951    62.91150    78.10780     0.02787
      1998 128309.14477    62.91224    70.31900     0.03374
      1999 128411.79209    62.91304    71.74610     0.03031
      2000 128514.52152    62.91390    78.41123     0.02724
      2001 128617.33314    62.91482    61.55547     0.03627
      2002 128720.22701    62.91580    66.64778     0.03330
      2003 128823.20319    62.91682    61.65728     0.03756
      2004 128926.26175    62.91788    57.66499     0.04059
      2005 129029.40276    62.91899    63.71146     0.03576
      2006 129132.62628    62.92015    65.29471     0.03286
      2007 129235.93238    62.92134    61.32059     0.03653
      2008 129339.32113    62.92257    72.01154     0.03123
      2009 129442.79259    62.92384    61.57692     0.03754
      2010 129546.34682    62.92514    78.98599     0.02777
      2011 129649.98390    62.92648    65.07876     0.03345
      2012 129753.70389    62.92785    65.46124     0.03376
      2013 129857.50685    62.92926    62.30504     0.03548
      2014 129961.39285    62.93069    70.74714     0.02956
      2015 130065.36197    62.93216    70.71491     0.02977
      2016 130169.41426    62.93366    69.20297     0.03124
      2017 130273.54979    62.93519    62.28574     0.03461
      2018 130377.76863    62.93676    58.11922     0.03634
      2019 130482.07084    62.93831    69.37480     0.03071
      2020 130586.45650    62.93750    58.79253     0.03741
      2021 130690.92567    62.93801    54.56534     0.04113
      2022 130795.47841    62.93959    70.01893     0.03099
      2023 130900.11479    62.94138    60.00956     0.03456
      2024 131004.83488    62.94323    62.64116     0.03599
      2025 131109.63875    62.94512    68.44274     0.03238
      2026 131214.52646    62.94703    55.93103     0.04030
      2027 131319.49808    62.94896    60.79998     0.03784
      2028 131424.55368    62.95092    73.27820     0.02897
      2029 131529.69332    63.15475    69.83549     0.03078
      2030 131634.91708    63.83949    82.03864     0.02585
      2031 131740.22501    64.61677    66.66130     0.02983
      2032 131845.61719    64.81636    62.81973     0.03161
      2033 131951.09368    64.90456    57.05182     0.03552
      2034 132056.65456    64.97363    58.65658     0.03571
      2035 132162.29988    65.04135    60.58808     0.03435
      2036 132268.02972    65.11130    59.05348     0.03486
      2037 132373.84415    65.18464    63.91468     0.03196
      2038 132479.74322    65.26167    68.12429     0.02956
      2039 132585.72702    65.34263    71.02624     0.02899
      2040 132691.79560    65.42779    62.19700     0.03119
      2041 132797.94903    65.51747    68.78129     0.02882
      2042 132904.18739    65.61199    56.73880     0.03316
      2043 133010.51074    65.71171    59.66966     0.03333
      2044 133116.91915    65.81704    61.15724     0.03241
      2045 133223.41269    65.92853    63.71652     0.03062
      2046 133329.99142    66.04654    65.15212     0.03182
      2047 133436.65541    66.17160    66.37022     0.03025
      2048 133543.40474    66.30430    54.28362     0.03713
      2049 133650.23946    66.44528    70.98941     0.02683
      2050 133757.15965    66.59524    70.41271     0.02977
      2051 133864.16538    66.75499    76.01925     0.02444
      2052 133971.25671    66.92539    64.18189     0.03065
      2053 134078.43372    67.10743    56.83668     0.03337
      2054 134185.69646    67.30220    72.14046     0.02628
      2055 134293.04502    67.51093    66.50830     0.02918
      2056 134400.47946    67.73500    61.53994     0.03053
      2057 134507.99984    67.97596    72.40637     0.02565
      2058 134615.60624    68.23557    62.12887     0.03102
      2059 134723.29872    69.10242    60.75983     0.03116
      2060 134831.07736    70.15541    56.76436     0.03561
      2061 134938.94223    70.76885    58.00241     0.03082
      2062 135046.89338    71.22173    70.08011     0.02767
      2063 135154.93089    71.67244    73.06446     0.02595
      2064 135263.05484    72.15441    70.78360     0.02762
      2065 135371.26528    72.67805    73.62945     0.02717
      2066 135479.56229    73.25025    71.77069     0.02756
      2067 135587.94594    73.87734    67.42440     0.02931
      2068 135696.41630    74.56678    76.88511     0.02399
      2069 135804.97343    75.32738    64.04847     0.02980
      2070 135913.61741    76.16953    64.89056     0.02914
      2071 136022.34831    77.10563    56.81332     0.03472
      2072 136131.16619    78.15054    73.40465     0.02534
      2073 136240.07112    79.32219    70.20281     0.02669
      2074 136349.06318    80.64235    87.26577     0.02113
      2075 136458.14243    82.13771    66.13633     0.02783
      2076 136567.30894    83.84133    68.49361     0.02939
      2077 136676.56279    85.79476    66.32505     0.02967
      2078 136785.90404    88.05126    63.62887     0.03002
      2079 136895.33276    90.68288    78.69604     0.02431
      2080 137004.84903    93.79577    78.35362     0.02429
      2081 137114.45291    97.56675    82.70469     0.02298
      2082 137224.14447   102.32911    80.17668     0.02403
      2083 137333.92378   108.75929    89.28319     0.02142
      2084 137443.79092   118.24274    74.55186     0.02802
      2085 137553.74596   133.49864   100.31828     0.01989
      2086 137663.78895   159.48277   107.82180     0.01871
      2087 137773.91998   204.37019   146.38582     0.01481
      2088 137884.13912   279.79642   213.10392     0.01029
      2089 137994.44643   399.90381   339.05434     0.00646
      2090 138104.84199   577.91332   536.34023     0.00417
      2091 138215.32586   820.29959   806.43009     0.00289
      2092 138325.89812  1119.83074  1162.79284     0.00200
      2093 138436.55884  1449.92080  1551.96273     0.00151
      2094 138547.30809  1762.81915  1913.94795     0.00123
      2095 138658.14593  1994.81603  2129.12556     0.00109
      2096 138769.07245  2085.00605  2065.66450     0.00112
      2097 138880.08771  2006.76548  1970.35951     0.00119
      2098 138991.19178  1784.72682  1732.11910     0.00133
      2099 139102.38473  1477.50191  1457.86743     0.00157
      2100 139213.66664  1148.28001  1111.86139     0.00205
      2101 139325.03757   846.23687   844.22080     0.00265
      2102 139436.49760   599.91094   589.25687     0.00385
      2103 139548.04680   418.07656   445.42059     0.00495
      2104 139659.68524   295.13142   323.68989     0.00664
      2105 139771.41299   218.20509   275.12634     0.00762
      2106 139883.23012   172.99959   200.32930     0.01055
      2107 139995.13670   147.56437   161.80901     0.01266
      2108 140107.13281   133.57693   135.68496     0.01475
      2109 140219.21852   125.93743   123.20766     0.01600
      2110 140331.39389   121.85891   114.95051     0.01715
      2111 140443.65901   119.98573   112.84848     0.01714
      2112 140556.01393   119.79173   111.04784     0.01841
      2113 140668.45875   121.29455   113.15928     0.01635
      2114 140780.99351   125.05783   111.22995     0.01706
      2115 140893.61831   132.46591   121.64342     0.01518
      2116 141006.33320   146.26545   120.91722     0.01626
      2117 141119.13827   171.30077   142.96966     0.01344
      2118 141232.03358   215.18222   169.31707     0.01233
      2119 141345.01921   288.34999   241.75277     0.00864
      2120 141458.09522   402.79426   396.58944     0.00520
      2121 141571.26170   568.84649   542.78040     0.00394
      2122 141684.51871   790.17567   798.33094     0.00270
      2123 141797.86632  1058.21929  1124.07780     0.00193
      2124 141911.30462  1348.02515  1492.09764     0.00144
      2125 142024.83366  1617.39889  1756.29561     0.00121
      2126 142138.45353  1811.98008  1948.16158     0.00110
      2127 142252.16429  1881.57244  1933.25717     0.00110
      2128 142365.96602  1806.00161  1817.17248     0.00118
      2129 142479.85879  1607.72379  1561.75034     0.00135
      2130 142593.84268  1336.66385  1240.12810     0.00171
      2131 142707.91775  1046.13813   985.01644     0.00210
      2132 142822.08409   777.87563   730.23444     0.00289
      2133 142936.34176   556.63070   566.93001     0.00358
      2134 143050.69083   390.72712   393.12636     0.00519
      2135 143165.13138   276.24222   298.85013     0.00667
      2136 143279.66349   202.66511   233.01854     0.00822
      2137 143394.28722   157.92765   184.49917     0.01025
      2138 143509.00265   131.58539   149.94337     0.01251
      2139 143623.80985   116.05190   132.28554     0.01358
      2140 143738.70890   106.49646   111.74548     0.01564
      2141 143853.69986   100.15080   106.01842     0.01633
      2142 143968.78282    95.55362    89.91916     0.01893
      2143 144083.95785    91.97338    85.26708     0.01971
      2144 144199.22502    89.04761    79.90231     0.01947
      2145 144314.58440    86.58785    83.33739     0.01946
      2146 144430.03606    84.48539    64.36604     0.02414
      2147 144545.58009    82.66922    75.59149     0.02123
      2148 144661.21656    81.08799    80.95481     0.02071
      2149 144776.94553    79.70239    90.85031     0.01767
      2150 144892.76709    78.48126    76.79169     0.02033
      2151 145008.68130    77.39950    80.49007     0.02015
      2152 145124.68825    76.43662    82.88597     0.01942
      2153 145240.78800    75.57580    73.41144     0.02330
      2154 145356.98063    74.80307    76.48276     0.02184
      2155 145473.26621    74.10680    66.41747     0.02374
      2156 145589.64482    73.47722    78.69798     0.01951
      2157 145706.11654    72.90610    70.33137     0.02429
      2158 145822.68143    72.28507    72.39215     0.02113
      2159 145939.33958    70.54564    67.55185     0.02301
      2160 146056.09105    69.83326    74.13148     0.02032
      2161 146172.93592    69.43173    75.39723     0.02054
      2162 146289.87427    69.10761    71.02357     0.02344
      2163 146406.90617    68.81810    51.64514     0.02993
      2164 146524.03170    68.55388    67.43732     0.02401
      2165 146641.25092    68.31094    61.90689     0.02463
      2166 146758.56392    68.08719    74.78212     0.02128
      2167 146875.97077    67.88077    79.56827     0.02055
      2168 146993.47155    67.69006    60.80111     0.02586
      2169 147111.06633    67.51359    74.16848     0.02147
      2170 147228.75518    67.35010    79.08661     0.01931
      2171 147346.53818    67.19845    71.87395     0.01966
      2172 147464.41541    67.05762    69.61627     0.02128
      2173 147582.38695    66.92670    67.54244     0.02317
      2174 147700.45286    66.80487    83.30133     0.01819
      2175 147818.61322    66.69141    65.49209     0.02076
      2176 147936.86811    66.58569    60.79578     0.02413
      2177 148055.21760    66.48717    66.43251     0.02170
      2178 148173.66178    66.39521    66.28615     0.02253
      2179 148292.20071    66.30932    69.87297     0.02141
      2180 148410.83447    66.22907    66.24044     0.02089
      2181 148529.56314    66.15406    71.63673     0.02036
      2182 148648.38679    66.08392    65.86037     0.02219
      2183 148767.30550    66.01832    74.65056     0.02167
      2184 148886.31934    65.95696    70.20714     0.02102
      2185 149005.42840    65.89955    60.32473     0.02294
      2186 149124.63274    65.84585    72.89118     0.02049
      2187 149243.93244    65.79564    53.42544     0.02674
      2188 149363.32759    65.74874    61.65219     0.02351
      2189 149482.81825    65.70489    74.22767     0.02016
      2190 149602.40451    65.65579    67.36520     0.02163
      2191 149722.08643    64.83523    64.15769     0.02291
      2192 149841.86410    64.15121    79.33034     0.01818
      2193 149961.73759    64.06700    67.50811     0.02208
      2194 150081.70698    64.06587    62.18268     0.02222
      2195 150201.77235    64.07832    66.40986     0.02136
      2196 150321.93376    64.09327    70.38434     0.02230
      2197 150442.19131    64.10836    66.88078     0.02134
      2198 150562.54506    64.13299    57.45594     0.02588
      2199 150682.99510    64.17533    68.35103     0.02122
      2200 150803.54150    64.21730    73.26549     0.01942
      2201 150924.18433    64.23861    59.81275     0.02410
      2202 151044.92368    64.25691    73.62506     0.01834
      2203 151165.75962    64.27496    66.48940     0.02154
      2204 151286.69222    64.29317    75.41168     0.01881
      2205 151407.72158    64.31162    75.49408     0.01897
      2206 151528.84776    64.33031    63.69668     0.02207
      2207 151650.07083    64.34927    81.48449     0.01810
      2208 151771.39089    64.36848    69.64608     0.02112
      2209 151892.80800    64.38798    69.13486     0.02119
      2210 152014.32225    64.40775    69.84346     0.02134
      2211 152135.93371    64.42781    75.95725     0.01996
      2212 152257.64245    64.44817    74.47471     0.02031
      2213 152379.44857    64.46884    68.96369     0.02215
      2214 152501.35213    64.48983    79.04661     0.01902
      2215 152623.35321    64.51115    82.12726     0.01751
      2216 152745.45189    64.53282    66.98558     0.02247
      2217 152867.64825    64.55484    63.76273     0.02251
      2218 152989.94237    64.57723    76.68121     0.01882
      2219 153112.33433    64.60000    55.75932     0.02353
      2220 153234.82419    64.62318    69.48613     0.01970
      2221 153357.41205    64.64678    60.11511     0.02325
      2222 153480.09798    64.67082    73.49446     0.02031
      2223 153602.88206    64.69532    66.14481     0.02189
      2224 153725.76437    64.72031    79.71586     0.01822
      2225 153848.74498    64.74582    68.03114     0.02163
      2226 153971.82397    64.77186    63.21252     0.02256
      2227 154095.00143    64.79848    64.05910     0.02424
      2228 154218.27743    64.82571    69.96413     0.02069
      2229 154341.65206    64.85358    77.39083     0.01854
      2230 154465.12538    64.88214    63.29969     0.02365
      2231 154588.69748    64.91143    58.65131     0.02536
      2232 154712.36844    64.94152    79.40961     0.01703
      2233 154836.13833    64.97245    69.11451     0.02009
      2234 154960.00724    65.00429    62.18950     0.02199
      2235 155083.97525    65.03712    68.57009     0.02214
      2236 155208.04243    65.07102    77.78108     0.01873
      2237 155332.20886    65.10608    60.25991     0.02265
      2238 155456.47463    65.14243    69.12324     0.02068
      2239 155580.83981    65.18018    75.47388     0.01851
      2240 155705.30448    65.21946    79.12876     0.01707
      2241 155829.86872    65.26045    55.57591     0.02549
      2242 155954.53262    65.30331    64.41604     0.02033
      2243 156079.29624    65.34827    62.58831     0.01953
      2244 156204.15968    65.39556    64.92405     0.02082
      2245 156329.12301    65.44549    44.99001     0.02952
      2246 156454.18631    65.49839    73.51014     0.01887
      2247 156579.34966    65.55465    58.39633     0.02331
      2248 156704.61314    65.61474    59.71594     0.02246
      2249 156829.97683    65.67924    53.29533     0.02466
      2250 156955.44081    65.74880    58.37053     0.02090
      2251 157081.00516    65.82423    71.64218     0.01957
      2252 157206.66996    65.90655    66.92044     0.01960
      2253 157332.43530    65.99697    67.40578     0.01880
      2254 157458.30125    66.09710    68.05662     0.01918
      2255 157584.26789    66.20915    74.56647     0.01848
      2256 157710.33530    66.33639    65.15440     0.02016
      2257 157836.50357    66.48431    80.34242     0.01660
      2258 157962.77278    66.66275    66.58604     0.02119
      2259 158089.14299    66.89019    65.51885     0.01953
      2260 158215.61431    67.20121    67.96700     0.02065
      2261 158342.18680    67.65832    61.03065     0.02333
      2262 158468.86055    68.36814    71.10256     0.01891
      2263 158595.63564    69.49941    76.67395     0.01805
      2264 158722.51215    71.29578    80.25605     0.01825
      2265 158849.49016    74.07180    87.95626     0.01628
      2266 158976.56975    78.17765    86.19052     0.01768
      2267 159103.75100    83.92274    79.25895     0.02037
      2268 159231.03400    91.46081    94.32920     0.01651
      2269 159358.41883   100.65864   125.62482     0.01271
      2270 159485.90557   110.98529   134.79269     0.01164
      2271 159613.49429   121.45630   148.45633     0.01070
      2272 159741.18509   130.67233   151.40355     0.01104
      2273 159868.97803   137.01438   150.90643     0.01094
      2274 159996.87322   139.10813   161.08756     0.01035
      2275 160124.87072   136.45530   157.32405     0.01048
      2276 160252.97061   129.70628   127.70527     0.01326
      2277 160381.17299   120.28752   125.00834     0.01298
      2278 160509.47793   109.79934   124.39661     0.01313
      2279 160637.88551    99.60098   115.46014     0.01295
      2280 160766.39582    90.62977    89.85390     0.01798
      2281 160895.00893    83.37025    96.71873     0.01569
      2282 161023.72494    77.91354    96.14528     0.01507
      2283 161152.54392    74.07471    76.57325     0.01958
      2284 161281.46596    71.52711    85.71316     0.01679
      2285 161410.49113    69.91603    82.56001     0.01745
      2286 161539.61952    68.93114    62.88814     0.02433
      2287 161668.85122    68.33724    83.38033     0.01809
      2288 161798.18630    67.97471    73.17134     0.01908
      2289 161927.62485    67.74463    62.85022     0.02319
      2290 162057.16695    67.59007    63.69669     0.02243
      2291 162186.81268    67.48005    67.65425     0.02164
      2292 162316.56213    67.39820    68.16260     0.02031
      2293 162446.41538    67.33580    75.30781     0.01930
      2294 162576.37251    67.28796    68.87938     0.02310
      2295 162706.43361    67.25167    64.66494     0.02376
      2296 162836.59876    67.22488    64.68695     0.02291
      2297 162966.86804    67.20605    67.55843     0.02203
      2298 163097.24153    67.19400    64.68988     0.02309
      2299 163227.71932    67.18776    66.25890     0.02130
      2300 163358.30150    67.18655    71.46041     0.02053
      2301 163488.98814    67.18971    60.16530     0.02576
      2302 163619.77933    67.19670    66.69216     0.02289
      2303 163750.67516    67.20707    65.96128     0.02338
      2304 163881.67570    67.22043    58.12384     0.02379
      2305 164012.78104    67.23645    67.05465     0.02317
      2306 164143.99126    67.25486    69.91437     0.02342
      2307 164275.30645    67.27542    55.15603     0.02793
      2308 164406.72670    67.29793    64.19990     0.02309
      2309 164538.25208    67.32221    61.26070     0.02392
      2310 164669.88268    67.34811    65.66684     0.02281
      2311 164801.61859    67.37550    63.16847     0.02551
      2312 164933.45988    67.40425    71.43300     0.02014
      2313 165065.40665    67.43426    69.84143     0.02334
      2314 165197.45898    67.46544    62.55902     0.02422
      2315 165329.61694    67.49773    74.09751     0.01999
      2316 165461.88064    67.53104    73.54341     0.01986
      2317 165594.25014    67.56532    57.53956     0.02694
      2318 165726.72554    67.60051    69.69163     0.02311
      2319 165859.30692    67.63656    62.52978     0.02532
      2320 165991.99437    67.67344    71.63028     0.02124
      2321 166124.78796    67.71111    62.25709     0.02400
      2322 166257.68779    67.74952    61.42788     0.02404
      2323 166390.69394    67.78865    62.05312     0.02367
      2324 166523.80650    67.82848    61.16976     0.02370
      2325 166657.02554    67.86898    64.19032     0.02265
      2326 166790.35116    67.91013    65.06890     0.02296
      2327 166923.78345    67.95190    59.11602     0.02486
      2328 167057.32247    67.99428    66.27202     0.02176
      2329 167190.96833    68.03725    68.03312     0.02267
      2330 167324.72110    68.08080    72.53091     0.02208
      2331 167458.58088    68.12491    65.25109     0.02374
      2332 167592.54775    68.16958    70.87720     0.02208
      2333 167726.62178    68.21479    63.69437     0.02462
      2334 167860.80308    68.26054    63.71152     0.02262
      2335 167995.09172    68.30681    62.71199     0.02528
      2336 168129.48780    68.35360    74.03771     0.02092
      2337 168263.99139    68.40090    86.21923     0.01732
      2338 168398.60258    68.44871    67.29822     0.02408
      2339 168533.32146    68.49701    73.33535     0.02219
      2340 168668.14812    68.54581    83.92107     0.01846
      2341 168803.08264    68.59509    59.28175     0.02479
      2342 168938.12511    68.64487    71.79464     0.02181
      2343 169073.27561    68.69512    79.35684     0.02000
      2344 169208.53423    68.74316    66.06812     0.02533
      2345 169343.90105    68.74455    71.41241     0.02198
      2346 169479.37617    68.78733    63.09443     0.02417
      2347 169614.95967    68.83985    66.11893     0.02249
      2348 169750.65164    68.89397    52.10766     0.02768
      2349 169886.45216    68.94868    73.17612     0.02242
      2350 170022.36133    69.00381    72.75817     0.02169
