data_d6_MAPbI3_350K
_chemical_name_common           'd6-methylammonium lead iodide'
_chemical_formula_sum            'C H0.38 D5.62 I3 N Pb'
_chemical_formula_moiety         'I3 Pb, (C H0.19 D2.81), (H0.19 D2.81 N)'
_chemical_formula_weight         625.55
_exptl_crystal_colour            black
_exptl_crystal_description       powder
_publ_requested_journal          'Nature Communications'
_publ_section_title
; Structures and Phase Transitions of the Organic-Inorganic Hybrid 
 Perovskite Methyl Ammonium Lead Iodide
;
_publ_contact_author             'Pamela Whitfield'
_publ_contact_author_email       whitfieldps@ornl.gov
loop_
_publ_author_name        
'Whitfield, P.S.'
'Herron, N'
'Giuse, N'
'Page, K'
'Cheng, Y.Q.'
'Milas, I'
'Crawford, M.K.'
_diffrn_ambient_temperature      350
_cell_measurement_temperature    350
_pd_spec_mounting                '8mm diameter vanadium can'
_pd_spec_mount_mode              transmission
_pd_spec_shape                   cylinder
_cell_measurement_reflns_used    146  
_diffrn_source                   'spallation source'
_diffrn_radiation_type           neutron
_diffrn_detector                 '6Li scintillation wavelength-shifting fibre'
_diffrn_measurement_device_type  'time-of-flight neutron powder diffractometer'
_pd_instr_location               'POWGEN diffractometer, SNS, ORNL (USA)'
_pd_meas_scan_method             tof
_pd_instr_dist_src/spec          60000
_pd_instr_dist_spec/detc         3000 #distance for 90deg detectors
# detector distances increase from 2.5 metres at backscattering to 
#  4.5 metres at forward scattering
_pd_meas_2theta_fixed            90 #data from all detectors focussed at 90deg 
_diffrn_measurement_method       'neutron time-event mode'
loop_
_diffrn_radiation_wavelength     
1.066
2.665
# 1 Angstrom bandwith with centre wavelengths of 1.066 and 2.665 Angstrom
loop_
_atom_type_symbol
_atom_type_scat_length_neutron
_atom_type_scat_source
C 0.6646 International_Tables_Vol_C
N 0.9360 International_Tables_Vol_C
Pb 0.9405 International_Tables_Vol_C
I 0.528 International_Tables_Vol_C
H -0.3739 International_Tables_Vol_C
D 0.6671 International_Tables_Vol_C
_diffrn_reflns_number            146
_reflns_number_total             146
_reflns_number_gt                ?
_reflns_threshold_expression     ?
_diffrn_reflns_theta_max         ?
_diffrn_reflns_limit_h_min       0
_diffrn_reflns_limit_h_max       9
_diffrn_reflns_limit_k_min       0
_diffrn_reflns_limit_k_max       9
_diffrn_reflns_limit_l_min       0
_diffrn_reflns_limit_l_max       9
_diffrn_standards_number         ?
_diffrn_standards_interval_count ?
_diffrn_standards_interval_time  ?
_diffrn_standards_decay_%        ?
_pd_proc_ls_special_details      
; co-refinement of two 1 Angstrom bandwith datasets with 
  centre wavelengths of 1.066 and 2.665 Angstrom
  Pb occupancy and H/D ratio fixed at value from 10 K refinement
  Pb occupancy >1 presence of radiogenic Pb isotopes
; 
_computing_structure_solution    'TOPAS'
_computing_data_collection       'SNS pyDAS'
_computing_cell_refinement       'TOPAS'
_computing_data_reduction        'Mantid'
_pd_proc_ls_profile_function     'back-to-back exponentials with pseudo-Voigt'
_pd_proc_ls_background_function  'Chebychev polynomial with sinQ/Q function'
_refine_ls_structure_factor_coef Inet
_refine_ls_matrix_type           full
_refine_ls_weighting_scheme      'sigma'
_refine_ls_weighting_details
'w = 1/sigma\^2'
_refine_diff_density_max         ?
_refine_diff_density_min         ?
_refine_ls_number_reflns         146
_pd_proc_ls_prof_wR_factor       0.0283
_refine_ls_wR_factor_ref         0.0283
_refine_ls_R_factor_gt           ?
_refine_ls_goodness_of_fit_all   1.96
_refine_ls_goodness_of_fit_ref   1.96
_refine_ls_hydrogen_treatment    refall
_refine_ls_number_parameters     41
_refine_ls_shift/su_max          0.01347
_refine_ls_number_constraints    2
loop_
_atom_site_constraints
'Pb occupancy fixed to value from 10K refinement'
'D/H ratios fixed to value from 10K refinement'
_cell_length_a                   6.30649(2)
_cell_length_b                   6.30649(2)
_cell_length_c                   6.30649(2)
_cell_angle_alpha                90
_cell_angle_beta                 90
_cell_angle_gamma                90
_cell_volume                     250.821(3)
_space_group_crystal_system      cubic
_symmetry_space_group_name_H-M  'P m -3 m'
_symmetry_space_group_name_Hall  '-P 4 2 3'
_symmetry_Int_Tables_number      221
_cell_formula_units_Z            1
_exptl_crystal_density_diffrn    4.141 
_exptl_absorpt_coefficient_mu    0
_exptl_absorpt_correction_type   cylinder
_exptl_absorpt_process_details  
'Lobanov, 6th EPDIC, Abstract.P12-16, Aug.22-25, 1998'
loop_
_symmetry_equiv_pos_as_xyz
	 'x, y, z '
	 '-x, -y, z '
	 '-x, -z, -y '
	 '-x, -z, y '
	 '-x, z, -y '
	 '-x, z, y '
	 '-x, y, -z '
	 '-x, y, z '
	 '-y, -x, -z '
	 '-y, -x, z '
	 '-y, -z, -x '
	 '-y, -z, x '
	 '-y, z, -x '
	 '-y, z, x '
	 '-y, x, -z '
	 '-y, x, z '
	 '-z, -x, -y '
	 '-z, -x, y '
	 '-z, -y, -x '
	 '-z, -y, x '
	 '-z, y, -x '
	 '-z, y, x '
	 '-z, x, -y '
	 '-z, x, y '
	 'z, -x, -y '
	 'z, -x, y '
	 'z, -y, -x '
	 'z, -y, x '
	 'z, y, -x '
	 'z, y, x '
	 'z, x, -y '
	 'z, x, y '
	 'y, -x, -z '
	 'y, -x, z '
	 'y, -z, -x '
	 'y, -z, x '
	 'y, z, -x '
	 'y, z, x '
	 'y, x, -z '
	 'y, x, z '
	 'x, -y, -z '
	 'x, -y, z '
	 'x, -z, -y '
	 'x, -z, y '
	 'x, z, -y '
	 'x, z, y '
	 'x, y, -z '
	 '-x, -y, -z '
loop_
_atom_site_label
_atom_site_type_symbol
_atom_site_fract_x
_atom_site_fract_y
_atom_site_fract_z
_atom_site_occupancy
#_atom_site_symmetry_multiplicity  
#bug in CheckCIF generates completely wrong cell contents
_atom_site_site_symmetry_multiplicity   #generates right ratios but wrong totals
_atom_site_adp_type
_atom_site_U_iso_or_equiv
Pb1 Pb 0 0 0 1.011 1 Biso 0
I1 I 0.5 0 0 1  3 Biso 0
C1 C 0.3900(17) 0.5 0.5 0.1666667 6  Biso 0
C1 N 0.3900(17) 0.5 0.5 0.1666667 6  Biso 0
D1 D 0.306(3) 0.542(5) 0.381(2) 0.117125 48  Biso 0
D1 H 0.306(3) 0.542(5) 0.381(2) 0.007875 48  Biso 0
loop_
_atom_site_aniso_label
_atom_site_aniso_U_11
_atom_site_aniso_U_22
_atom_site_aniso_U_33
_atom_site_aniso_U_12
_atom_site_aniso_U_13
_atom_site_aniso_U_23
Pb1 0.0440(7) 0.0440(7) 0.0440(7) 0 0 0
I1 0.0259(17) 0.1741(18) 0.1741(18) 0 0 0
C1 0.090(5) 0.136(8) 0.136(8) 0 0 0
C1 0.090(5) 0.136(8) 0.136(8) 0 0 0
D1 0.137(9) 0.14(3) 0.148(14) 0.07(2) -0.055(12) -0.06(2)
D1 0.137(9) 0.14(3) 0.148(14) 0.07(2) -0.055(12) -0.06(2)
loop_
	_geom_bond_atom_site_label_1
	_geom_bond_atom_site_label_2
	_geom_bond_distance
	_geom_bond_site_symmetry_1
	_geom_bond_site_symmetry_2
	Pb1       I1        3.15324 1_555  11_555
	I1        D1        3.096(16) 1_555  13_655
	C1        D1        0.953(19) 1_555  41_566
	C1        C1        1.39(2) 1_555   2_665
	D1        I1        3.096(16) 1_555   9_565
loop_
	_geom_angle_atom_site_label_1
	_geom_angle_atom_site_label_2
	_geom_angle_atom_site_label_3
	_geom_angle
	_geom_angle_site_symmetry_1
	_geom_angle_site_symmetry_2
	_geom_angle_site_symmetry_3
	I1        Pb1       I1         90.000    1_555 1_555  11_555
        I1        Pb1       I1         180.000  11_556 1_555  11_555
	C1        C1        D1         123.6(12)  2_665 1_555   1_555
	D1        C1        D1         109.3(15) 15_656 1_555  28_565
	D1        C1        D1         109(2) 15_656 1_555  42_565

data_d6_MAPbI3_350K_p_01
_diffrn_radiation_wavelength     1.066
# 1 Angstrom bandwith with centre wavelengths of 1.066 Angstrom
loop_
_refln_index_h
_refln_index_k
_refln_index_l
_refln_d_spacing
_refln_F_squared_calc
_refln_F_squared_meas  
   1   1   0     4.45936  4221.47164  3821.72902 
   1   1   1     3.64105  1408.02565  1315.19347 
   2   0   0     3.15324  2512.68023  2408.57192 
   2   1   0     2.82035   504.09230   500.81756 
   2   1   1     2.57461   659.77184   628.37648 
   2   2   0     2.22968  1370.62274  1391.06647 
   2   2   1     2.10216  1845.74895  1915.67633 
   2   2   2     1.82053   544.68733   552.79866 
   3   0   0     2.10216   196.43567   203.87776 
   3   1   0     1.99429    24.40739    23.74149 
   3   1   1     1.90148     9.12290     8.99690 
   3   2   0     1.74911   889.18854   956.37953 
   3   2   1     1.68548   191.92005   198.93376 
   3   2   2     1.52955   584.59705   625.56470 
   3   3   0     1.48645    51.24564    52.63346 
   3   3   1     1.44681     8.21685     8.38699 
   3   3   2     1.34455   204.94508   202.10432 
   3   3   3     1.21368    14.84215    14.43005 
   4   0   0     1.57662   469.12637   482.60130 
   4   1   0     1.52955  1041.66073  1114.65868 
   4   1   1     1.48645   626.27573   643.23632 
   4   2   0     1.41017  1408.22522  1486.89087 
   4   2   1     1.37619  1391.43005  1471.21811 
   4   2   2     1.28731  1054.22421  1067.40239 
   4   3   0     1.26130   387.45789   395.76864 
   4   3   1     1.23680   761.32153   785.41966 
   4   3   2     1.17109   704.89090   705.85141 
   4   3   3     1.08155   121.20919   121.31992 
   4   4   0     1.11484   254.64905   252.19928 
   4   4   1     1.09782   400.07274   399.51191 
   4   4   2     1.05108   311.89737   314.11774 
   4   4   3     0.98491   381.32504   396.04994 
   4   4   4     0.91026    14.52703    14.86083 
   5   0   0     1.26130     5.65022     5.77141 
   5   1   0     1.23680    89.43363    92.26447 
   5   1   1     1.21368     0.00182     0.00177 
   5   2   0     1.17109    75.09454    75.19687 
   5   2   1     1.15140   180.60032   177.62845 
   5   2   2     1.09782   125.24126   125.06569 
   5   3   0     1.08155    56.01580    56.06698 
   5   3   1     1.06599    99.63919    97.52103 
   5   3   2     1.02305    93.26724    96.68022 
   5   3   3     0.96173   133.21698   133.91753 
   5   4   0     0.98491   194.11801   201.61390 
   5   4   1     0.97311   124.13581   127.72041 
   5   4   2     0.94012   349.13547   356.09951 
   5   4   3     0.89187    47.31064    49.01884 
   5   4   4     0.83531   168.80984   167.01492 
   5   5   0     0.89187     7.90132     8.18660 
   5   5   1     0.88309    92.18076    93.17842 
   5   5   2     0.85820    36.05409    36.58796 
   5   5   3     0.82103    76.98578    75.91458 
   5   5   4     0.77628    17.43235    17.57145 
   5   5   5     0.72821    15.45784    15.72059 
   6   0   0     1.05108   193.54095   194.91875 
   6   1   0     1.03678   462.25104   466.70102 
   6   1   1     1.02305   451.60454   468.13034 
   6   2   0     0.99714   437.63622   451.41461 
   6   2   1     0.98491   787.60072   818.01401 
   6   2   2     0.95074   258.67894   264.54146 
   6   3   0     0.94012   296.63639   302.55326 
   6   3   1     0.92984   331.91858   338.79956 
   6   3   2     0.90093   483.29614   489.28425 
   6   3   3     0.85820    71.43430    72.49206 
   6   4   0     0.87455   118.02761   119.19906 
   6   4   1     0.86626   383.49145   389.61768 
   6   4   2     0.84274   204.79255   205.51390 
   6   4   3     0.80746   231.46670   226.90089 
   6   4   4     0.76477    39.90064    40.36454 
   6   5   0     0.80746   121.77823   119.37609 
   6   5   1     0.80092    95.75036    95.12007 
   6   5   2     0.78222   120.34876   122.05429 
   6   5   3     0.75377    92.02309    92.83769 
   6   5   4     0.71869    78.61996    79.52344 
   6   6   0     0.74323    14.26679    14.46756 
   6   6   1     0.73812    60.65651    62.01745 
   6   6   2     0.72340    49.13151    49.57272 
   6   6   3     0.70072    21.69513    22.03150 
   7   0   0     0.90093     0.30489     0.30867 
   7   1   0     0.89187     5.73766     5.94482 
   7   1   1     0.88309     3.24192     3.27701 
   7   2   0     0.86626    12.84694    13.05217 
   7   2   1     0.85820    20.88141    21.19061 
   7   2   2     0.83531    27.03711    26.74963 
   7   3   0     0.82808    17.38848    17.08137 
   7   3   1     0.82103    39.26112    38.71483 
   7   3   2     0.80092    37.16992    36.92525 
   7   3   3     0.77046    30.11026    30.29656 
   7   4   0     0.78222    29.76989    30.19177 
   7   4   1     0.77628    54.96384    55.40240 
   7   4   2     0.75921    51.20885    52.71193 
   7   4   3     0.73311    47.65805    48.61677 
   7   4   4     0.70072    23.38500    23.74758 
   7   5   0     0.73311    17.43370    17.78441 
   7   5   1     0.72821    45.63732    46.41308 
   7   5   2     0.71407    55.86933    56.50355 
   7   5   3     0.69223    28.43019    28.16781 
   8   0   0     0.78831    61.10361    60.14112 
   8   1   0     0.78222   174.84753   177.32539 
   8   1   1     0.77628   188.11341   189.61440 
   8   2   0     0.76477   162.84575   164.73907 
   8   2   1     0.75921   237.03694   243.99442 
   8   2   2     0.74323   103.40361   104.85870 
   8   3   0     0.73812    73.28591    74.93021 
   8   3   1     0.73311   184.46093   188.17168 
   8   3   2     0.71869   119.75355   121.12973 
   8   3   3     0.69644    40.95765    40.78197 
   8   4   0     0.70509    62.18908    62.19302 
   8   4   1     0.70072    75.00626    76.16922 
   8   4   2     0.68809    86.11348    84.29759 
   9   0   0     0.70072     0.42328     0.42984 
   9   1   0     0.69644     0.03485     0.03470 
   9   1   1     0.69223     0.32337     0.32039 
loop_
_pd_proc_point_id
_pd_meas_time_of_flight
_pd_proc_intensity_total
_pd_calc_intensity_total
_pd_proc_ls_weight
         1 15496.52484    48.48278    47.60994     8.57632
         2 15508.92206    48.48500    47.53642     8.59004
         3 15521.32919    48.53874    47.58022     8.58262
         4 15533.74626    48.78133    47.24626     8.64390
         5 15546.17325    49.01025    48.16733     8.47941
         6 15558.61019    48.80695    47.95335     8.51829
         7 15571.05708    48.55852    47.30956     8.63553
         8 15583.51393    48.47111    47.47931     8.60628
         9 15595.98074    48.44898    47.79883     8.55069
        10 15608.45752    48.44720    47.53393     8.60067
        11 15620.94429    48.48920    48.14972     8.49337
        12 15633.44104    48.59109    47.89020     8.54251
        13 15645.94780    48.59107    48.51811     8.43540
        14 15658.46455    48.49069    47.64149     8.59448
        15 15670.99133    48.43565    48.25065     8.49009
        16 15683.52812    48.42034    48.49920     8.45091
        17 15696.07494    48.41783    48.38570     8.47523
        18 15708.63180    48.43917    48.12324     8.52604
        19 15721.19871    48.55150    48.04613     8.54433
        20 15733.77567    48.67896    48.37096     8.49151
        21 15746.36269    48.58903    48.70303     8.43808
        22 15758.95978    48.46161    48.57545     8.46466
        23 15771.56694    48.41759    47.67290     8.62936
        24 15784.18420    48.41036    48.42597     8.49952
        25 15796.81154    48.42413    48.13653     8.55500
        26 15809.44899    48.55637    48.42974     8.50757
        27 15822.09655    48.99904    50.18021     8.21507
        28 15834.75423    49.20182    50.48563     8.16973
        29 15847.42203    48.79882    48.80759     8.45528
        30 15860.09997    48.50554    48.32416     8.54479
        31 15872.78805    48.42464    48.72571     8.47950
        32 15885.48628    48.40946    48.45772     8.53182
        33 15898.19467    48.42166    48.84858     8.46917
        34 15910.91323    48.52734    48.68921     8.50277
        35 15923.64196    48.76588    48.45155     8.55061
        36 15936.38087    48.78429    48.92461     8.47420
        37 15949.12998    48.56656    48.56205     8.54397
        38 15961.88928    48.44407    49.05895     8.46401
        39 15974.65879    48.41372    48.38250     8.58913
        40 15987.43852    48.40846    48.76470     8.52861
        41 16000.22847    48.40865    48.47589     8.58628
        42 16013.02865    48.41040    48.35346     8.61484
        43 16025.83907    48.41289    48.86519     8.53126
        44 16038.65975    48.41594    48.73483     8.56054
        45 16051.49067    48.41954    48.32092     8.64016
        46 16064.33187    48.42376    49.23504     8.48566
        47 16077.18333    48.42887    48.14742     8.68313
        48 16090.04508    48.43633    49.47722     8.45508
        49 16102.91711    48.46174    48.40378     8.64773
        50 16115.79945    48.59169    48.66074     8.60690
        51 16128.69209    48.82337    49.60870     8.44689
        52 16141.59504    48.78282    49.39810     8.48711
        53 16154.50832    48.58250    48.99389     8.56107
        54 16167.43192    48.49679    49.52827     8.47231
        55 16180.36587    48.48472    48.04362     8.73758
        56 16193.31016    48.49700    49.02591     8.56570
        57 16206.26481    48.57398    49.13964     8.54887
        58 16219.22982    48.99736    48.98296     8.57906
        59 16232.20521    49.78832    50.65661     8.29822
        60 16245.19097    49.72822    50.33939     8.35302
        61 16258.18712    49.01154    49.36672     8.52005
        62 16271.19367    48.64312    49.38855     8.51868
        63 16284.21063    48.55632    48.66449     8.64780
        64 16297.23800    48.54467    48.83636     8.61974
        65 16310.27579    48.55863    48.96506     8.59951
        66 16323.32401    48.64551    49.03613     8.58958
        67 16336.38267    48.85205    49.24863     8.55519
        68 16349.45177    48.90033    49.28425     8.55189
        69 16362.53133    48.72559    49.38982     8.53668
        70 16375.62136    48.61995    49.05084     8.59897
        71 16388.72186    48.59957    48.98588     8.61388
        72 16401.83283    48.60450    49.12334     8.59350
        73 16414.95430    48.62121    48.88263     8.63984
        74 16428.08626    48.69564    49.08780     8.60802
        75 16441.22873    48.93428    50.17805     8.42549
        76 16454.38172    49.09745    49.70279     8.51088
        77 16467.54522    48.91427    49.98253     8.46832
        78 16480.71926    48.74132    49.27348     8.59558
        79 16493.90383    48.69751    49.34268     8.58915
        80 16507.09896    48.70277    49.27636     8.60652
        81 16520.30463    48.72846    49.06107     8.65023
        82 16533.52088    48.85728    49.36631     8.60267
        83 16546.74769    49.53243    50.38906     8.43384
        84 16559.98509    50.61425    51.83177     8.20463
        85 16573.23308    50.27064    51.24754     8.30366
        86 16586.49167    49.29221    50.38320     8.45156
        87 16599.76086    48.89878    49.24646     8.65202
        88 16613.04067    48.82243    49.51954     8.60947
        89 16626.33110    48.81974    49.80278     8.56544
        90 16639.63217    48.85040    49.13330     8.68695
        91 16652.94387    49.03654    49.56638     8.61559
        92 16666.26623    49.59598    51.35079     8.32036
        93 16679.59924    49.87915    50.77665     8.41844
        94 16692.94292    49.41048    50.53397     8.46268
        95 16706.29727    49.03318    49.79946     8.59118
        96 16719.66231    48.93236    49.77672     8.59863
        97 16733.03804    48.92450    50.11886     8.54333
        98 16746.42447    48.94042    49.31230     8.68650
        99 16759.82161    49.00350    48.87489     8.76775
       100 16773.22947    49.29734    49.92552     8.58676
       101 16786.64805    49.81790    50.51276     8.49056
       102 16800.07737    49.77924    50.77440     8.45061
       103 16813.51743    49.32401    49.63907     8.64800
       104 16826.96825    49.09647    49.73265     8.63611
       105 16840.42982    49.05182    49.41489     8.69634
       106 16853.90217    49.05483    49.57269     8.67362
       107 16867.38529    49.06762    49.04555     8.77211
       108 16880.87920    49.08318    49.38657     8.71698
       109 16894.38390    49.09985    49.75853     8.65742
       110 16907.89941    49.11712    49.61637     8.68801
       111 16921.42573    49.13496    49.34147     8.74237
       112 16934.96287    49.15310    48.97129     8.81458
       113 16948.51084    49.17233    49.70072     8.69133
       114 16962.06965    49.19270    49.11020     8.80210
       115 16975.63930    49.21509    49.45656     8.74670
       116 16989.21981    49.24740    48.96820     8.84029
       117 17002.81119    49.35780    49.38724     8.77168
       118 17016.41344    49.70929    49.77513     8.70977
       119 17030.02657    50.03358    50.32091     8.62177
       120 17043.65059    49.81097    51.03565     8.50752
       121 17057.28551    49.49517    49.64053     8.75341
       122 17070.93134    49.39363    49.68645     8.75222
       123 17084.58808    49.39194    50.15451     8.67749
       124 17098.25575    49.41701    49.81792     8.74316
       125 17111.93436    49.47680    49.69963     8.77106
       126 17125.62391    49.78596    50.77797     8.59175
       127 17139.32440    50.87233    51.49284     8.47931
       128 17153.03586    51.87145    54.28695     8.04934
       129 17166.75829    51.10235    52.68182     8.30122
       130 17180.49170    50.04128    51.06573     8.57074
       131 17194.23609    49.66749    49.92734     8.77308
       132 17207.99148    49.60473    49.89298     8.78597
       133 17221.75788    49.61234    50.08262     8.75943
       134 17235.53528    49.64888    49.80342     8.81518
       135 17249.32371    49.82308    50.38804     8.71934
       136 17263.12317    50.53327    51.18879     8.58912
       137 17276.93367    51.40272    52.02592     8.45680
       138 17290.75521    50.97658    51.42779     8.56089
       139 17304.58782    50.15209    51.14976     8.61293
       140 17318.43149    49.84176    50.05497     8.80662
       141 17332.28623    49.79079    50.09041     8.80533
       142 17346.15206    49.79749    49.77467     8.86573
       143 17360.02898    49.81738    49.47758     8.92309
       144 17373.91701    49.85369    49.83304     8.86309
       145 17387.81614    49.95569    50.47815     8.75299
       146 17401.72639    50.11698    50.62296     8.73069
       147 17415.64778    50.12947    50.20904     8.80502
       148 17429.58029    50.02499    50.36061     8.78049
       149 17443.52396    49.98040    50.23158     8.80465
       150 17457.47878    49.99036    49.52797     8.93103
       151 17471.44476    50.01755    50.06007     8.83715
       152 17485.42192    50.05434    49.66832     8.90779
       153 17499.41025    50.13673    50.54228     8.75467
       154 17513.40978    50.55413    50.66757     8.73402
       155 17527.42051    51.75935    51.87864     8.53127
       156 17541.44245    52.42875    53.13759     8.33049
       157 17555.47560    51.44823    52.10178     8.49777
       158 17569.51998    50.56321    50.52026     8.76583
       159 17583.57560    50.30490    50.15433     8.83219
       160 17597.64246    50.27505    50.39374     8.79297
       161 17611.72057    50.29583    49.53478     8.94855
       162 17625.80995    50.34403    50.29175     8.81720
       163 17639.91059    50.55232    50.47410     8.78894
       164 17654.02252    51.52308    51.86944     8.55623
       165 17668.14574    53.11558    53.98517     8.22468
       166 17682.28026    52.88050    53.86913     8.24637
       167 17696.42608    51.42017    52.67676     8.43724
       168 17710.58322    50.69344    50.21209     8.85591
       169 17724.75169    50.53525    50.27141     8.85006
       170 17738.93149    50.52253    50.03158     8.89716
       171 17753.12264    50.53909    50.57775     8.80572
       172 17767.32513    50.56911    50.34025     8.85192
       173 17781.53899    50.65654    50.23349     8.87531
       174 17795.76423    50.92634    50.21050     8.88384
       175 17810.00084    51.19808    50.43051     8.84935
       176 17824.24884    51.05088    49.93011     8.94218
       177 17838.50824    50.81329    50.13842     8.90901
       178 17852.77904    50.74047    49.89964     8.95551
       179 17867.06127    50.74592    49.71087     8.99331
       180 17881.35492    50.76845    50.07293     8.93192
       181 17895.66000    50.79453    49.51244     9.03658
       182 17909.97653    50.82174    50.21123     8.91412
       183 17924.30451    50.84955    49.60885     9.02546
       184 17938.64395    50.87778    49.33706     9.07793
       185 17952.99487    50.90611    49.47880     9.05418
       186 17967.35726    50.93499    49.54107     9.04447
       187 17981.73115    50.96454    49.99966     8.96252
       188 17996.11653    50.99473    49.99793     8.96314
       189 18010.51343    51.02586    49.81510     8.99561
       190 18024.92184    51.05856    49.97784     8.96514
       191 18039.34178    51.09494    50.12241     8.93738
       192 18053.77325    51.15463    49.23953     9.09496
       193 18068.21627    51.38076    50.57622     8.85121
       194 18082.67084    52.01530    51.46941     8.69352
       195 18097.13698    52.46499    52.32376     8.54672
       196 18111.61469    52.02170    52.23797     8.55502
       197 18126.10398    51.51413    50.52512     8.83818
       198 18140.60486    51.35600    50.49619     8.83537
       199 18155.11735    51.34919    50.10082     8.89609
       200 18169.64144    51.37736    49.64561     8.96747
       201 18184.17715    51.41959    50.18277     8.86030
       202 18198.72449    51.50678    50.35595     8.81761
       203 18213.28347    51.93311    50.77947     8.73086
       204 18227.85410    53.43416    52.46670     8.43628
       205 18242.43638    54.97258    54.10934     8.16580
       206 18257.03033    54.01765    52.61469     8.38202
       207 18271.63596    52.41049    51.26790     8.58508
       208 18286.25327    51.79009    51.32852     8.55684
       209 18300.88227    51.67514    50.18366     8.73253
       210 18315.52297    51.67146    50.78705     8.60845
       211 18330.17539    51.68922    50.40220     8.65264
       212 18344.83953    51.71280    50.85827     8.55266
       213 18359.51540    51.73891    50.71156     8.55400
       214 18374.20302    51.76647    50.32877     8.59460
       215 18388.90238    51.79508    50.86890     8.47836
       216 18403.61350    51.82455    50.15360     8.57325
       217 18418.33639    51.85449    50.26321     8.52798
       218 18433.07106    51.88487    50.90751     8.39335
       219 18447.81752    51.91586    50.30655     8.46627
       220 18462.57577    51.94774    50.73007     8.36824
       221 18477.34583    51.98108    50.84748     8.32152
       222 18492.12771    52.01792    50.22586     8.39677
       223 18506.92141    52.07758    51.45992     8.16843
       224 18521.72695    52.29317    51.57917     8.12281
       225 18536.54433    52.87958    52.66742     7.92903
       226 18551.37357    53.30544    52.20413     7.97352
       227 18566.21466    52.91182    52.19611     7.94917
       228 18581.06764    52.43265    51.81823     7.98174
       229 18595.93249    52.27601    51.73383     7.96969
       230 18610.80924    52.26565    51.00654     8.05830
       231 18625.69788    52.28673    51.74142     7.91954
       232 18640.59844    52.31418    51.92517     7.86767
       233 18655.51092    52.34424    51.86459     7.85335
       234 18670.43533    52.38161    51.26451     7.92184
       235 18685.37168    52.45495    51.66381     7.83770
       236 18700.31998    52.58185    51.48376     7.84244
       237 18715.28023    52.63631    51.94876     7.75010
       238 18730.25246    52.57954    51.40030     7.81078
       239 18745.23666    52.54810    51.25583     7.81110
       240 18760.23285    52.56245    51.90664     7.69217
       241 18775.24103    52.59206    51.95997     7.66379
       242 18790.26123    52.62610    51.64241     7.69084
       243 18805.29343    52.66418    51.88989     7.63474
       244 18820.33767    52.71625    51.90170     7.61419
       245 18835.39394    52.87735    52.96942     7.44290
       246 18850.46226    53.51130    52.62660     7.47411
       247 18865.54262    54.60049    54.19909     7.24109
       248 18880.63506    54.68865    53.87194     7.26935
       249 18895.73957    53.72651    53.19653     7.34627
       250 18910.85616    53.10753    53.42218     7.30046
       251 18925.98484    52.95613    51.95445     7.49204
       252 18941.12563    52.95057    52.53394     7.39542
       253 18956.27853    52.97421    53.04991     7.31019
       254 18971.44355    53.00719    51.93382     7.45424
       255 18986.62071    53.05482    53.37670     7.24060
       256 19001.81001    53.20266    52.78331     7.31028
       257 19017.01145    53.82195    53.63277     7.18345
       258 19032.22506    55.00263    55.52386     6.92854
       259 19047.45084    55.21567    55.25707     6.95205
       260 19062.68880    54.18521    54.87543     6.99064
       261 19077.93896    53.47318    53.08183     7.21693
       262 19093.20131    53.28944    52.28901     7.31638
       263 19108.47587    53.27452    53.38629     7.15625
       264 19123.76265    53.29159    52.60483     7.25264
       265 19139.06166    53.31549    53.30214     7.14789
       266 19154.37291    53.34175    53.00628     7.17772
       267 19169.69641    53.36921    53.32967     7.12399
       268 19185.03216    53.39740    52.71774     7.19606
       269 19200.38019    53.42611    52.60584     7.20033
       270 19215.74049    53.45520    52.95994     7.14073
       271 19231.11309    53.48460    52.57785     7.18050
       272 19246.49798    53.51448    53.23407     7.07937
       273 19261.89517    53.54476    52.43577     7.17364
       274 19277.30469    53.57547    52.41485     7.16226
       275 19292.72653    53.60695    52.85572     7.08766
       276 19308.16072    53.63982    53.19968     7.02634
       277 19323.60724    53.67565    53.70082     6.94471
       278 19339.06613    53.72568    52.92482     7.02954
       279 19354.53738    53.88463    54.30031     6.83427
       280 19370.02101    54.43270    54.72588     6.76345
       281 19385.51703    55.16674    56.28810     6.55799
       282 19401.02544    55.02516    55.97284     6.57653
       283 19416.54626    54.35008    55.50200     6.61327
       284 19432.07950    54.00368    54.29167     6.74077
       285 19447.62516    53.93845    53.90521     6.76860
       286 19463.18326    53.95147    53.90450     6.74778
       287 19478.75381    53.98150    54.18256     6.69199
       288 19494.33681    54.02005    54.09431     6.68137
       289 19509.93228    54.07374    54.42147     6.61952
       290 19525.54023    54.22041    54.38807     6.60162
       291 19541.16066    54.95202    55.21703     6.48065
       292 19556.79359    57.04523    57.30105     6.22371
       293 19572.43902    58.72894    60.38840     5.88523
       294 19588.09698    57.33706    58.43009     6.06138
       295 19603.76745    55.29725    55.82150     6.32245
       296 19619.45047    54.48018    54.87291     6.40909
       297 19635.14603    54.31662    53.78692     6.51531
       298 19650.85414    54.30164    53.65879     6.50756
       299 19666.57483    54.31492    54.78049     6.35142
       300 19682.30809    54.33732    54.50320     6.36067
       301 19698.05393    54.36767    54.67606     6.31750
       302 19713.81238    54.43290    54.66483     6.29567
       303 19729.58343    54.70115    54.87301     6.24866
       304 19745.36709    55.39450    56.26633     6.07126
       305 19761.16339    55.86140    56.53119     6.02013
       306 19776.97232    55.38143    55.88804     6.06632
       307 19792.79390    54.80015    54.72632     6.17135
       308 19808.62813    54.59730    54.70464     6.14984
       309 19824.47503    54.57430    54.71449     6.12458
       310 19840.33461    54.59021    54.20196     6.15790
       311 19856.20688    54.61351    54.40293     6.11046
       312 19872.09185    54.64013    54.83046     6.03816
       313 19887.98952    54.67118    54.13734     6.09038
       314 19903.89991    54.72587    54.94961     5.97557
       315 19919.82303    54.92147    54.85738     5.96079
       316 19935.75889    55.44573    56.51749     5.76164
       317 19951.70750    55.90842    56.60250     5.72906
       318 19967.66886    55.62329    56.05226     5.76124
       319 19983.64300    55.11873    55.35625     5.80946
       320 19999.62991    54.90954    55.72748     5.74681
       321 20015.62962    54.87982    55.62432     5.73356
       322 20031.64212    54.89348    55.07253     5.76693
       323 20047.66743    54.91531    56.03966     5.64379
       324 20063.70557    54.93978    55.21442     5.70420
       325 20079.75653    54.96603    55.01342     5.70102
       326 20095.82034    54.99957    56.54937     5.52280
       327 20111.89699    55.08331    55.30742     5.62292
       328 20127.98651    55.34868    56.07651     5.52221
       329 20144.08890    55.74400    59.24887     5.20421
       330 20160.20417    55.75667    58.02520     5.29118
       331 20176.33234    55.42519    56.38816     5.42139
       332 20192.47340    55.22181    55.77777     5.45713
       333 20208.62738    55.18335    55.74526     5.43679
       334 20224.79428    55.19820    55.86387     5.40187
       335 20240.97412    55.22500    55.81245     5.38358
       336 20257.16690    55.25755    56.30366     5.31371
       337 20273.37263    55.29752    55.85350     5.33367
       338 20289.59133    55.35597    55.81454     5.31480
       339 20305.82300    55.52906    56.94296     5.18766
       340 20322.06766    56.42659    57.05685     5.15591
       341 20338.32531    59.13165    59.01374     4.96465
       342 20354.59597    61.62534    62.26012     4.68692
       343 20370.87965    59.99848    61.43691     4.73096
       344 20387.17635    57.11244    58.17067     4.97721
       345 20403.48610    55.85209    56.37170     5.11648
       346 20419.80888    55.57467    56.55090     5.08129
       347 20436.14473    55.53143    57.14374     5.01040
       348 20452.49365    55.53017    56.41165     5.05770
       349 20468.85564    55.53927    56.56284     5.02726
       350 20485.23073    55.55291    56.83305     4.98731
       351 20501.61891    55.57000    55.62704     5.07987
       352 20518.02021    55.59343    56.00883     5.03062
       353 20534.43462    55.64416    56.02764     5.01514
       354 20550.86217    55.74830    57.74644     4.85328
       355 20567.30286    55.82930    57.13594     4.89322
       356 20583.75670    55.79046    57.14087     4.88166
       357 20600.22371    55.72729    56.50135     4.92638
       358 20616.70389    55.71211    56.11777     4.95014
       359 20633.19725    55.72388    55.83743     4.96565
       360 20649.70381    55.74201    55.45221     4.99130
       361 20666.22357    55.76235    56.04087     4.93062
       362 20682.75655    55.78296    55.85076     4.93956
       363 20699.30275    55.80295    55.64478     4.95036
       364 20715.86220    55.82291    55.70361     4.93797
       365 20732.43489    55.84291    56.14938     4.89192
       366 20749.02083    55.86297    55.79246     4.91648
       367 20765.62005    55.88311    56.19660     4.87452
       368 20782.23255    55.90335    56.03525     4.88193
       369 20798.85833    55.92374    55.94391     4.88318
       370 20815.49742    55.94438    55.47996     4.91711
       371 20832.14982    55.96536    56.97342     4.78131
       372 20848.81554    55.98689    55.77556     4.87670
       373 20865.49459    56.00925    55.86976     4.86091
       374 20882.18699    56.03311    55.26370     4.90623
       375 20898.89274    56.05838    57.03565     4.74568
       376 20915.61185    56.08825    56.90565     4.74793
       377 20932.34434    56.12638    56.44731     4.77733
       378 20949.09021    56.20032    56.85543     4.73343
       379 20965.84949    56.52674    56.95131     4.71535
       380 20982.62217    57.83097    57.46439     4.66271
       381 20999.40826    60.11670    62.35562     4.28679
       382 21016.20779    60.55091    62.33809     4.27736
       383 21033.02076    58.51007    58.79246     4.52358
       384 21049.84717    56.90935    57.73731     4.59384
       385 21066.68705    56.40943    56.94267     4.64492
       386 21083.54040    56.32163    56.62263     4.65765
       387 21100.40723    56.31682    57.25253     4.59264
       388 21117.28756    56.33088    56.85303     4.61070
       389 21134.18139    56.35546    56.96003     4.58753
       390 21151.08873    56.39178    56.44148     4.61477
       391 21168.00961    56.45061    57.18983     4.53943
       392 21184.94401    56.62453    56.18334     4.60532
       393 21201.89197    57.57304    57.87501     4.45557
       394 21218.85348    60.91380    61.34659     4.18903
       395 21235.82856    65.25355    67.17871     3.81212
       396 21252.81723    64.39279    65.76808     3.88030
       397 21269.81948    59.99223    61.02507     4.16723
       398 21286.83534    57.41535    59.18837     4.28144
       399 21303.86481    56.71681    57.21951     4.41316
       400 21320.90790    56.58373    57.77968     4.35496
       401 21337.96462    56.55556    57.41412     4.36721
       402 21355.03499    56.55123    56.81340     4.39778
       403 21372.11902    56.55784    57.01938     4.36637
       404 21389.21672    56.57279    57.13404     4.34213
       405 21406.32809    56.59918    56.99904     4.33687
       406 21423.45315    56.67486    57.38358     4.29230
       407 21440.59192    57.05960    57.83732     4.24315
       408 21457.74439    58.37433    58.90121     4.15121
       409 21474.91059    60.13280    62.05206     3.92577
       410 21492.09051    59.94320    62.06432     3.91020
       411 21509.28419    58.20562    58.69546     4.11882
       412 21526.49161    57.08719    56.47767     4.26400
       413 21543.71281    56.76421    57.20819     4.19308
       414 21560.94778    56.70612    58.15540     4.10845
       415 21578.19654    56.69870    57.75020     4.12073
       416 21595.45909    56.70234    57.79029     4.10124
       417 21612.73546    56.71129    57.73041     4.08875
       418 21630.02565    56.72689    57.28443     4.10360
       419 21647.32967    56.74620    57.08842     4.10053
       420 21664.64753    56.77565    57.57470     4.04875
       421 21681.97925    56.88679    56.88252     4.08051
       422 21699.32483    57.36868    57.98660     3.98549
       423 21716.68429    58.37678    58.57642     3.92807
       424 21734.05764    58.80710    59.09882     3.87612
       425 21751.44489    57.99955    58.17131     3.92033
       426 21768.84604    57.19846    57.61086     3.94063
       427 21786.26112    56.91508    57.02845     3.96280
       428 21803.69013    56.86294    57.97459     3.88033
       429 21821.13308    56.85828    57.33032     3.90597
       430 21838.58999    56.86459    56.62521     3.93648
       431 21856.06086    56.87462    56.94876     3.89620
       432 21873.54571    56.88747    57.92576     3.81296
       433 21891.04454    56.90364    57.63214     3.81488
       434 21908.55738    56.92436    57.60388     3.79934
       435 21926.08423    56.96759    57.73896     3.77319
       436 21943.62509    57.15268    58.90637     3.68160
       437 21961.17999    57.77586    58.71141     3.67708
       438 21978.74894    58.67787    60.34124     3.56160
       439 21996.33194    58.71561    60.98319     3.50825
       440 22013.92900    57.87763    59.75495     3.56433
       441 22031.54015    57.26577    57.94695     3.65919
       442 22049.16538    57.07990    58.11879     3.63225
       443 22066.80471    57.05511    59.01684     3.56131
       444 22084.45815    57.06476    58.96374     3.54903
       445 22102.12572    57.08562    58.49892     3.56182
       446 22119.80742    57.11589    58.44133     3.55011
       447 22137.50327    57.15878    58.66060     3.52187
       448 22155.21327    57.22243    58.93167     3.49099
       449 22172.93744    57.33088    58.70325     3.49006
       450 22190.67579    57.65537    59.76696     3.41397
       451 22208.42833    59.39328    61.97995     3.27892
       452 22226.19507    65.93365    67.15737     3.01434
       453 22243.97603    76.42091    79.81380     2.52675
       454 22261.77121    77.78700    80.39019     2.49947
       455 22279.58063    68.12528    71.37433     2.80530
       456 22297.40429    60.52310    64.65473     3.08643
       457 22315.24222    58.00850    60.16191     3.30630
       458 22333.09441    57.47482    59.63373     3.32548
       459 22350.96088    57.34308    58.86840     3.35912
       460 22368.84165    57.28974    58.55335     3.36824
       461 22386.73673    57.26405    58.64636     3.35466
       462 22404.64612    57.25472    58.42192     3.35997
       463 22422.56983    57.25893    59.12877     3.31301
       464 22440.50789    57.27925    58.31763     3.35289
       465 22458.46030    57.33827    57.28722     3.40755
       466 22476.42706    57.63455    60.30049     3.23254
       467 22494.40820    58.99056    60.22341     3.23255
       468 22512.40373    62.13833    64.78387     3.00170
       469 22530.41365    64.37632    66.33643     2.92874
       470 22548.43799    62.41471    64.29561     3.01941
       471 22566.47674    59.27501    61.02574     3.17926
       472 22584.52992    57.77080    58.54312     3.31252
       473 22602.59754    57.38742    59.06911     3.28188
       474 22620.67962    57.30619    58.65583     3.30416
       475 22638.77616    57.28065    57.98029     3.34204
       476 22656.88718    57.26871    58.13825     3.33249
       477 22675.01269    57.26278    58.02680     3.33847
       478 22693.15270    57.26030    57.38378     3.37545
       479 22711.30723    57.26000    56.88635     3.40445
       480 22729.47627    57.26172    57.59408     3.36199
       481 22747.65985    57.26494    57.26663     3.38043
       482 22765.85798    57.26837    58.68916     3.29751
       483 22784.07067    57.27201    57.23294     3.38013
       484 22802.29792    57.27611    56.69107     3.41083
       485 22820.53976    57.28066    57.27723     3.37399
       486 22838.79619    57.28565    57.97878     3.33092
       487 22857.06723    57.29111    57.82193     3.33735
       488 22875.35288    57.29572    56.82020     3.39318
       489 22893.65317    57.29897    56.92313     3.38370
       490 22911.96809    57.30653    57.85338     3.32565
       491 22930.29766    57.31557    57.15269     3.36239
       492 22948.64190    57.32636    57.70177     3.32603
       493 22967.00082    57.33977    56.89694     3.36828
       494 22985.37442    57.35730    56.91692     3.36190
       495 23003.76272    57.38174    57.39406     3.32840
       496 23022.16573    57.42018    57.92697     3.29188
       497 23040.58346    57.50454    58.14830     3.27307
       498 23059.01593    57.87766    57.10335     3.32619
       499 23077.46314    59.55138    61.16307     3.09870
       500 23095.92511    63.56662    65.24295     2.89829
       501 23114.40185    66.82569    70.34101     2.68177
       502 23132.89337    64.65314    67.37272     2.79285
       503 23151.39968    60.41954    62.39254     3.00784
       504 23169.92080    58.20720    59.25660     3.15833
       505 23188.45674    57.60841    58.40758     3.19513
       506 23207.00751    57.48283    57.73639     3.22275
       507 23225.57311    57.44579    57.22259     3.24179
       508 23244.15357    57.42996    57.66192     3.20702
       509 23262.74889    57.42424    57.77705     3.19035
       510 23281.35909    57.42589    57.87978     3.17426
       511 23299.98418    57.43470    57.67424     3.17498
       512 23318.62417    57.45267    57.21122     3.18992
       513 23337.27907    57.48702    57.57052     3.15928
       514 23355.94889    57.58772    57.66233     3.14351
       515 23374.63365    58.11505    57.58328     3.13707
       516 23393.33336    60.23313    60.94197     2.95402
       517 23412.04802    64.20238    65.09269     2.75616
       518 23430.77766    65.73907    66.10041     2.70480
       519 23449.52228    62.53979    63.41616     2.80957
       520 23468.28190    59.19449    60.31883     2.94363
       521 23487.05653    57.86573    58.13235     3.04376
       522 23505.84617    57.55910    57.40511     3.07160
       523 23524.65085    57.49027    56.57023     3.10606
       524 23543.47057    57.46531    56.95138     3.07449
       525 23562.30535    57.45394    56.95077     3.06377
       526 23581.15519    57.45050    55.78798     3.11667
       527 23600.02011    57.45351    56.80432     3.05015
       528 23618.90013    57.46336    56.32781     3.06509
       529 23637.79525    57.48256    55.65624     3.09109
       530 23656.70549    57.51915    56.79435     3.01835
       531 23675.63085    57.62635    57.17981     2.98728
       532 23694.57136    58.16646    58.09689     2.92956
       533 23713.52701    60.29637    60.30594     2.81208
       534 23732.49783    64.47363    65.07532     2.59658
       535 23751.48383    66.74194    67.98979     2.47631
       536 23770.48502    63.85866    63.62812     2.63651
       537 23789.50141    59.95336    60.72944     2.75239
       538 23808.53301    58.10431    58.42114     2.85084
       539 23827.57984    57.61800    55.76971     2.97563
       540 23846.64190    57.50880    56.78099     2.91215
       541 23865.71921    57.47007    56.43259     2.91964
       542 23884.81179    57.44869    56.83569     2.88859
       543 23903.91964    57.43528    56.64148     2.88817
       544 23923.04277    57.42677    56.51234     2.88448
       545 23942.18121    57.42174    55.99968     2.90054
       546 23961.33495    57.41970    56.63200     2.85796
       547 23980.50402    57.42095    55.43340     2.90934
       548 23999.68842    57.42832    56.09329     2.86481
       549 24018.88817    57.46521    56.35244     2.84136
       550 24038.10328    57.66115    56.45738     2.82578
       551 24057.33377    58.28367    57.72775     2.75349
       552 24076.57963    59.14499    57.34792     2.76151
       553 24095.84090    59.19929    57.79053     2.73015
       554 24115.11757    58.38030    57.74151     2.72219
       555 24134.40967    57.71475    56.21778     2.78537
       556 24153.71719    57.47531    56.49697     2.76105
       557 24173.04017    57.42051    56.70748     2.74027
       558 24192.37860    57.40660    56.51223     2.73920
       559 24211.73250    57.40064    55.97101     2.75508
       560 24231.10189    57.39754    56.51816     2.71796
       561 24250.48677    57.39628    55.17953     2.77327
       562 24269.88716    57.39664    55.98048     2.72320
       563 24289.30307    57.39877    56.02804     2.71061
       564 24308.73451    57.40329    56.13277     2.69543
       565 24328.18150    57.41162    55.91052     2.69611
       566 24347.64404    57.42892    55.89040     2.68717
       567 24367.12216    57.49185    56.03467     2.67048
       568 24386.61586    57.80410    56.65358     2.63177
       569 24406.12515    58.83283    58.20977     2.55225
       570 24425.65005    60.41879    60.77399     2.43592
       571 24445.19057    60.78894    61.88270     2.38388
       572 24464.74672    59.41434    58.83360     2.49870
       573 24484.31852    58.09714    57.97245     2.52707
       574 24503.90597    57.56907    56.18500     2.59855
       575 24523.50910    57.44214    56.11474     2.59300
       576 24543.12791    57.41277    56.82088     2.55218
       577 24562.76241    57.40207    55.33645     2.61191
       578 24582.41262    57.39744    56.12446     2.56670
       579 24602.07855    57.39670    55.59341     2.58265
       580 24621.76021    57.39943    55.62420     2.57268
       581 24641.45762    57.40605    55.49360     2.57019
       582 24661.17079    57.41786    54.69402     2.59909
       583 24680.89972    57.43761    55.47080     2.55410
       584 24700.64444    57.47154    56.65039     2.49247
       585 24720.40496    57.54866    56.00544     2.51259
       586 24740.18128    57.88383    57.51025     2.43845
       587 24759.97343    59.43091    58.66123     2.38235
       588 24779.78141    63.52810    64.25834     2.16728
       589 24799.60523    67.92158    67.47409     2.05678
       590 24819.44491    66.89406    66.96742     2.06505
       591 24839.30047    62.09465    62.12566     2.21811
       592 24859.17191    58.83225    59.33306     2.31422
       593 24879.05925    57.75221    56.36766     2.42721
       594 24898.96250    57.50775    56.85095     2.39787
       595 24918.88167    57.43941    57.02116     2.38204
       596 24938.81677    57.40612    55.08601     2.45677
       597 24958.76782    57.38549    55.21904     2.44200
       598 24978.73484    57.37208    55.93094     2.40229
       599 24998.71783    57.36365    56.06924     2.38791
       600 25018.71680    57.35920    56.67629     2.35415
       601 25038.73177    57.35863    56.53783     2.35193
       602 25058.76276    57.36272    55.41186     2.39181
       603 25078.80977    57.37387    55.40785     2.38434
       604 25098.87282    57.40323    54.84271     2.40148
       605 25118.95192    57.52979    55.90404     2.34892
       606 25139.04708    58.12184    58.00998     2.25725
       607 25159.15832    59.84074    60.17296     2.17025
       608 25179.28564    62.15869    61.16399     2.12963
       609 25199.42907    62.44184    61.84294     2.10116
       610 25219.58861    60.31121    59.80060     2.16800
       611 25239.76428    58.37343    58.23463     2.22159
       612 25259.95610    57.58706    56.38950     2.28978
       613 25280.16406    57.38921    57.10406     2.25706
       614 25300.38819    57.33860    55.74457     2.30832
       615 25320.62850    57.31594    55.33672     2.32190
       616 25340.88501    57.30124    55.69775     2.30382
       617 25361.15771    57.29049    55.82407     2.29597
       618 25381.44664    57.28212    55.87102     2.29179
       619 25401.75180    57.27529    53.28251     2.40118
       620 25422.07320    57.26951    53.98211     2.36851
       621 25442.41086    57.26447    55.87146     2.28727
       622 25462.76479    57.25997    55.00684     2.32240
       623 25483.13500    57.25587    56.50697     2.26023
       624 25503.52151    57.25207    54.35973     2.34925
       625 25523.92432    57.24853    55.22926     2.31225
       626 25544.34346    57.24518    55.63204     2.29569
       627 25564.77894    57.24069    56.08559     2.27747
       628 25585.23076    57.23679    54.53999     2.34249
       629 25605.69894    57.23656    54.74619     2.33422
       630 25626.18350    57.23579    55.00670     2.32373
       631 25646.68445    57.23363    54.53295     2.34444
       632 25667.20180    57.23156    54.52343     2.34526
       633 25687.73556    57.22966    53.68134     2.38229
       634 25708.28575    57.22796    55.01866     2.32437
       635 25728.85238    57.22651    55.56549     2.30120
       636 25749.43546    57.22537    54.83005     2.33141
       637 25770.03501    57.22462    55.27692     2.31154
       638 25790.65103    57.22440    54.91915     2.32518
       639 25811.28356    57.22489    53.88841     2.36780
       640 25831.93258    57.22639    55.71251     2.28810
       641 25852.59813    57.22941    55.31133     2.30213
       642 25873.28021    57.23478    54.60389     2.32896
       643 25893.97883    57.24416    53.58083     2.36998
       644 25914.69401    57.26297    54.36989     2.33180
       645 25935.42577    57.32681    55.32861     2.28730
       646 25956.17411    57.62438    56.22839     2.24631
       647 25976.93905    58.61778    57.33877     2.19817
       648 25997.72060    60.36124    60.37102     2.08305
       649 26018.51878    61.31304    60.58853     2.07057
       650 26039.33359    60.21152    58.13037     2.15262
       651 26060.16506    58.52192    58.55939     2.13111
       652 26081.01319    57.59915    55.77516     2.23121
       653 26101.87800    57.31800    54.18966     2.28979
       654 26122.75950    57.25286    55.51837     2.22821
       655 26143.65771    57.23312    53.86035     2.28960
       656 26164.57264    57.22405    56.04490     2.19323
       657 26185.50430    57.22000    54.34728     2.25418
       658 26206.45270    57.21964    55.40322     2.20360
       659 26227.41786    57.22265    54.69557     2.22422
       660 26248.39980    57.22936    55.58750     2.18060
       661 26269.39852    57.24069    54.44442     2.21814
       662 26290.41403    57.25843    54.18491     2.22036
       663 26311.44637    57.28583    55.50213     2.15940
       664 26332.49552    57.32905    55.65768     2.14509
       665 26353.56152    57.40488    54.12453     2.19733
       666 26374.64437    57.61304    56.40310     2.10039
       667 26395.74408    58.56562    56.67362     2.08226
       668 26416.86068    62.20362    62.67048     1.87571
       669 26437.99417    69.88537    70.17306     1.66868
       670 26459.14456    76.03425    75.87198     1.53738
       671 26480.31188    72.58129    73.33451     1.58443
       672 26501.49613    64.47454    65.13453     1.77702
       673 26522.69733    59.45093    58.38771     1.97470
       674 26543.91548    57.81468    57.47354     1.99836
       675 26565.15062    57.43324    55.49413     2.06163
       676 26586.40274    57.31992    56.42980     2.01958
       677 26607.67186    57.26178    56.58904     2.00605
       678 26628.95800    57.22387    55.70669     2.02982
       679 26650.26116    57.19716    56.74497     1.98479
       680 26671.58137    57.17743    55.16256     2.03358
       681 26692.91864    57.16230    55.18781     2.02450
       682 26714.27297    57.15032    55.79765     1.99430
       683 26735.64439    57.14058    55.41083     2.00009
       684 26757.03290    57.13246    55.44605     1.99072
       685 26778.43853    57.12556    57.09969     1.92524
       686 26799.86128    57.11959    54.24437     2.01838
       687 26821.30117    57.11434    54.74821     1.99175
       688 26842.75821    57.10967    56.03671     1.93815
       689 26864.23242    57.10512    55.28098     1.95681
       690 26885.72380    57.10073    54.18261     1.98858
       691 26907.23238    57.09724    55.85901     1.92133
       692 26928.75817    57.09404    55.16065     1.93808
       693 26950.30118    57.09106    54.42587     1.95667
       694 26971.86142    57.08828    55.85045     1.89948
       695 26993.43891    57.08719    55.68351     1.89799
       696 27015.03366    57.08766    55.84427     1.88547
       697 27036.64568    57.08675    55.27838     1.89777
       698 27058.27500    57.08488    55.23127     1.89248
       699 27079.92162    57.08311    54.98890     1.89399
       700 27101.58556    57.08147    55.89874     1.85652
       701 27123.26683    57.07996    54.60842     1.89364
       702 27144.96544    57.07859    54.54988     1.88897
       703 27166.68141    57.07736    55.82444     1.83932
       704 27188.41476    57.07628    54.87937     1.86437
       705 27210.16549    57.07538    56.76230     1.79611
       706 27231.93362    57.07469    54.60343     1.86045
       707 27253.71917    57.07427    55.76872     1.81502
       708 27275.52214    57.07420    55.57487     1.81476
       709 27297.34256    57.07468    55.70860     1.80380
       710 27319.18044    57.07497    55.19442     1.81393
       711 27341.03578    57.08048    54.15526     1.84193
       712 27362.90861    57.11663    55.83504     1.77992
       713 27384.79894    57.22153    56.17329     1.76267
       714 27406.70677    57.38108    55.49931     1.77750
       715 27428.63214    57.44753    55.42970     1.77318
       716 27450.57505    57.33655    55.91028     1.75146
       717 27472.53551    57.18691    56.46589     1.72783
       718 27494.51353    57.10770    55.99709     1.73583
       719 27516.50914    57.08489    55.21560     1.75383
       720 27538.52235    57.08106    55.21683     1.74719
       721 27560.55317    57.08181    55.21883     1.74050
       722 27582.60161    57.08417    55.01250     1.74037
       723 27604.66769    57.08775    54.50090     1.74996
       724 27626.75143    57.09260    56.58523     1.67901
       725 27648.85283    57.09897    55.79039     1.69635
       726 27670.97191    57.10725    54.89366     1.71738
       727 27693.10869    57.11803    56.02369     1.67620
       728 27715.26318    57.13223    55.92234     1.67268
       729 27737.43539    57.15126    57.76258     1.61306
       730 27759.62533    57.17740    55.65173     1.66768
       731 27781.83303    57.21445    56.36866     1.64001
       732 27804.05850    57.26933    56.30905     1.63528
       733 27826.30175    57.36016    56.90314     1.61181
       734 27848.56279    57.58571    56.41835     1.61921
       735 27870.84164    58.52268    59.77644     1.52216
       736 27893.13831    62.07293    64.67330     1.40127
       737 27915.45282    70.24382    71.80361     1.25704
       738 27937.78519    79.01566    80.72775     1.11355
       739 27960.13541    78.52643    81.40435     1.09980
       740 27982.50352    69.55749    73.07044     1.22020
       741 28004.88953    61.78570    66.12201     1.34283
       742 28027.29344    58.47856    59.23039     1.49277
       743 28049.71527    57.59060    58.92622     1.49411
       744 28072.15504    57.36968    57.49059     1.52488
       745 28094.61277    57.28141    54.94229     1.58879
       746 28117.08846    57.22992    57.42155     1.51369
       747 28139.58213    57.19637    57.56339     1.50353
       748 28162.09379    57.17395    56.06852     1.53705
       749 28184.62347    57.15905    57.26235     1.49864
       750 28207.17117    57.14965    56.06478     1.52421
       751 28229.73691    57.14461    57.09823     1.49040
       752 28252.32069    57.14340    57.16865     1.48244
       753 28274.92255    57.14599    56.66638     1.48953
       754 28297.54249    57.15286    55.88139     1.50445
       755 28320.18052    57.16515    56.43398     1.48393
       756 28342.83667    57.18516    56.45723     1.47768
       757 28365.51094    57.21812    57.35211     1.44926
       758 28388.20335    57.28698    57.52143     1.43983
       759 28410.91391    57.52864    57.88942     1.42576
       760 28433.64264    58.50623    57.28985     1.43596
       761 28456.38955    61.28399    62.76013     1.30673
       762 28479.15467    65.69245    65.90249     1.24081
       763 28501.93799    68.12261    70.43399     1.15784
       764 28524.73954    65.62159    67.08193     1.21267
       765 28547.55933    61.26692    63.77366     1.27266
       766 28570.39738    58.53089    60.82085     1.33165
       767 28593.25370    57.55308    59.84866     1.35069
       768 28616.12830    57.30485    58.83717     1.37154
       769 28639.02120    57.23580    56.75672     1.41960
       770 28661.93242    57.20542    56.89709     1.41415
       771 28684.86197    57.18866    55.79604     1.44032
       772 28707.80985    57.17980    56.15330     1.42966
       773 28730.77610    57.17652    57.83681     1.38681
       774 28753.76072    57.17767    54.98551     1.45763
       775 28776.76373    57.18279    55.14357     1.45257
       776 28799.78514    57.19195    56.91777     1.40664
       777 28822.82497    57.20564    56.53684     1.41565
       778 28845.88323    57.22494    56.81110     1.40852
       779 28868.95994    57.25163    57.39151     1.39414
       780 28892.05511    57.28579    57.52883     1.39082
       781 28915.16875    57.33671    56.57381     1.41442
       782 28938.30088    57.41563    57.20121     1.39915
       783 28961.45153    57.55042    58.12344     1.37731
       784 28984.62069    57.90873    57.52951     1.39199
       785 29007.80838    59.33712    58.95379     1.35892
       786 29031.01463    64.23728    64.46478     1.24335
       787 29054.23944    74.76856    75.75139     1.05868
       788 29077.48283    86.05345    86.53384     0.92734
       789 29100.74482    86.38979    87.37197     0.91906
       790 29124.02542    75.45514    77.05434     1.04289
       791 29147.32464    64.74873    66.36321     1.21183
       792 29170.64250    59.56263    63.48915     1.26772
       793 29193.97901    57.98397    61.38799     1.31220
       794 29217.33419    57.58232    57.83863     1.39389
       795 29240.70806    57.44032    57.97679     1.39172
       796 29264.10063    57.36214    57.79460     1.39722
       797 29287.51191    57.31055    56.53838     1.42934
       798 29310.94192    57.27446    57.10387     1.41619
       799 29334.39067    57.24869    58.33790     1.38718
       800 29357.85818    57.22993    56.33677     1.43738
       801 29381.34447    57.21610    56.58599     1.43193
       802 29404.84954    57.20583    56.23225     1.44178
       803 29428.37342    57.19821    56.26288     1.44179
       804 29451.91612    57.19260    57.00995     1.42363
       805 29475.47766    57.18855    56.98222     1.42502
       806 29499.05804    57.18463    58.42084     1.39057
       807 29522.65728    57.18143    55.29465     1.46983
       808 29546.27541    57.18049    55.44394     1.46648
       809 29569.91243    57.18024    56.59065     1.43731
       810 29593.56836    57.18054    56.52197     1.43956
       811 29617.24322    57.18131    57.19300     1.42310
       812 29640.93701    57.18249    54.63622     1.49006
       813 29664.64976    57.18403    56.66478     1.43698
       814 29688.38148    57.18588    55.47931     1.46786
       815 29712.13218    57.18801    55.31724     1.47222
       816 29735.90189    57.19040    56.92814     1.43051
       817 29759.69061    57.19303    55.88003     1.45713
       818 29783.49836    57.19588    56.48398     1.44118
       819 29807.32516    57.19895    54.36703     1.49673
       820 29831.17102    57.20222    55.43971     1.46703
       821 29855.03596    57.20571    56.34901     1.44242
       822 29878.91999    57.20940    57.00898     1.42460
       823 29902.82312    57.21419    56.85218     1.42721
       824 29926.74538    57.22489    56.60371     1.43197
       825 29950.68678    57.23344    56.94218     1.42178
       826 29974.64733    57.23874    54.88897     1.47305
       827 29998.62705    57.24430    55.66039     1.45058
       828 30022.62595    57.25029    56.56402     1.42523
       829 30046.64405    57.25680    56.04715     1.43604
       830 30070.68136    57.26395    54.78686     1.46655
       831 30094.73791    57.27191    55.89557     1.43487
       832 30118.81370    57.28075    54.96350     1.45648
       833 30142.90875    57.28483    53.56820     1.49152
       834 30167.02308    57.29722    55.60692     1.43396
       835 30191.15670    57.31309    57.05422     1.39470
       836 30215.30962    57.33374    57.22660     1.38753
       837 30239.48187    57.36362    55.93896     1.41635
       838 30263.67345    57.42447    56.43205     1.40081
       839 30287.88439    57.63012    58.43822     1.34962
       840 30312.11470    58.35719    57.60821     1.36589
       841 30336.36439    60.15194    59.10616     1.32817
       842 30360.63348    62.69655    60.34324     1.29789
       843 30384.92199    63.93511    65.28442     1.19684
       844 30409.22993    62.45512    61.20370     1.27366
       845 30433.55731    59.95286    58.59394     1.32731
       846 30457.90416    58.30006    55.49372     1.39825
       847 30482.27048    57.65978    55.01305     1.40727
       848 30506.65630    57.48807    54.39955     1.41993
       849 30531.06162    57.44533    55.92309     1.37815
       850 30555.48647    57.43152    56.26902     1.36662
       851 30579.93086    57.42707    57.56677     1.33286
       852 30604.39481    57.42788    57.52365     1.33093
       853 30628.87832    57.43843    55.46336     1.37736
       854 30653.38142    57.45162    57.87982     1.31699
       855 30677.90413    57.46302    57.41359     1.32481
       856 30702.44645    57.47657    56.89192     1.33408
       857 30727.00841    57.49306    58.86334     1.28662
       858 30751.59002    57.51297    56.45073     1.33869
       859 30776.19129    57.53707    55.97863     1.34701
       860 30800.81224    57.56653    56.72940     1.32620
       861 30825.45289    57.60309    57.24612     1.31121
       862 30850.11325    57.64944    56.20495     1.33239
       863 30874.79334    57.70977    56.94084     1.31205
       864 30899.49318    57.79089    56.82320     1.31160
       865 30924.21277    57.90494    58.15916     1.27835
       866 30948.95214    58.08333    59.11236     1.25462
       867 30973.71131    58.47643    58.31504     1.26858
       868 30998.49028    59.84682    59.49450     1.24025
       869 31023.28907    64.69481    65.95424     1.11587
       870 31048.10770    76.79533    80.20230     0.91521
       871 31072.94618    94.65170   101.19586     0.72339
       872 31097.80454   104.93519   110.73227     0.65929
       873 31122.68279    96.21107   101.17647     0.71957
       874 31147.58093    78.43409    84.70940     0.85706
       875 31172.49900    65.60463    72.61167     0.99707
       876 31197.43700    60.20612    67.19094     1.07451
       877 31222.39495    58.63371    60.96075     1.18104
       878 31247.37286    58.20161    59.95886     1.19747
       879 31272.37076    58.02698    59.27049     1.20809
       880 31297.38866    57.92542    59.75210     1.19513
       881 31322.42657    57.85939    57.80437     1.23214
       882 31347.48451    57.81567    58.47567     1.21483
       883 31372.56250    57.78717    60.48775     1.17143
       884 31397.66055    57.76971    58.62976     1.20555
       885 31422.77867    57.76066    56.87236     1.23977
       886 31447.91690    57.75844    60.14988     1.16943
       887 31473.07523    57.76222    59.82037     1.17312
       888 31498.25369    57.77155    59.32970     1.18011
       889 31523.45229    57.78562    58.79210     1.18819
       890 31548.67106    57.80750    57.87819     1.20422
       891 31573.90999    57.83728    58.36932     1.19138
       892 31599.16912    57.87705    58.02697     1.19568
       893 31624.44846    57.93029    59.11323     1.17103
       894 31649.74801    58.00267    59.21979     1.16624
       895 31675.06781    58.10389    59.48657     1.15835
       896 31700.40787    58.25448    59.62409     1.15301
       897 31725.76819    58.53239    59.20892     1.15840
       898 31751.14881    59.34565    60.66327     1.12798
       899 31776.54973    62.32559    63.48828     1.07523
       900 31801.97097    71.10764    73.20120     0.93031
       901 31827.41254    87.89860    92.26792     0.73625
       902 31852.87447   105.01353   111.27213     0.60897
       903 31878.35677   106.35038   112.10731     0.60288
       904 31903.85946    90.45467    95.28519     0.70744
       905 31929.38255    72.96019    80.93699     0.83059
       906 31954.92605    63.14230    69.40827     0.96585
       907 31980.48999    59.62620    64.54987     1.03560
       908 32006.07439    58.65532    60.14646     1.10819
       909 32031.67924    58.34883    60.60941     1.09650
       910 32057.30459    58.19764    61.43848     1.07850
       911 32082.95043    58.10121    58.45890     1.13008
       912 32108.61679    58.03503    59.65278     1.10413
       913 32134.30369    57.98833    59.68220     1.10024
       914 32160.01113    57.95486    57.42114     1.14006
       915 32185.73914    57.93068    58.77809     1.11032
       916 32211.48773    57.91322    58.96029     1.10347
       917 32237.25692    57.90436    58.28055     1.11287
       918 32263.04672    57.89790    56.62240     1.14189
       919 32288.85716    57.88291    59.57758     1.08185
       920 32314.68825    57.87958    58.53638     1.09762
       921 32340.54000    57.87864    56.47405     1.13410
       922 32366.41243    57.87920    58.29881     1.09511
       923 32392.30556    57.88100    58.84653     1.08146
       924 32418.21940    57.88384    58.07323     1.09236
       925 32444.15398    57.88759    58.02150     1.08986
       926 32470.10930    57.89216    57.84050     1.08981
       927 32496.08539    57.89751    57.08234     1.10085
       928 32522.08226    57.90368    58.67817     1.06763
       929 32548.09992    57.91108    59.39895     1.05152
       930 32574.13840    57.92207    56.55489     1.10116
       931 32600.19772    57.94610    59.11719     1.05040
       932 32626.27787    58.00442    58.60527     1.05661
       933 32652.37890    58.11138    59.26811     1.04193
       934 32678.50080    58.22592    59.16697     1.04093
       935 32704.64360    58.25207    59.58223     1.03097
       936 32730.80731    58.16948    60.56732     1.01161
       937 32756.99196    58.06820    58.96917     1.03642
       938 32783.19755    58.01075    57.78739     1.05499
       939 32809.42411    57.99423    58.20996     1.04474
       940 32835.67165    57.99591    58.86469     1.03058
       941 32861.94019    58.00287    58.53081     1.03390
       942 32888.22974    58.01129    58.16221     1.03788
       943 32914.54032    58.02039    59.98441     1.00385
       944 32940.87196    58.03001    58.20361     1.03198
       945 32967.22465    58.04012    59.48562     1.00720
       946 32993.59843    58.05070    58.44885     1.02246
       947 33019.99331    58.06181    57.32363     1.03987
       948 33046.40931    58.07348    58.73346     1.01229
       949 33072.84643    58.08579    57.94346     1.02340
       950 33099.30471    58.09282    57.35462     1.03114
       951 33125.78416    58.10993    58.81665     1.00278
       952 33152.28478    58.13304    57.26305     1.02712
       953 33178.80661    58.15127    58.90837     0.99562
       954 33205.34966    58.17055    57.53781     1.01643
       955 33231.91394    58.19203    59.94920     0.97276
       956 33258.49947    58.21645    58.57293     0.99277
       957 33285.10627    58.24480    59.75687     0.97035
       958 33311.73435    58.27856    58.38585     0.99035
       959 33338.38374    58.31997    61.06284     0.94430
       960 33365.05445    58.37262    57.64779     0.99751
       961 33391.74649    58.44276    57.22776     1.00213
       962 33418.45989    58.54610    60.50865     0.94529
       963 33445.19465    58.75184    59.01785     0.96667
       964 33471.95081    59.38567    59.80031     0.95160
       965 33498.72837    61.51164    62.11563     0.91386
       966 33525.52735    66.98287    68.19989     0.83032
       967 33552.34778    76.17992    78.85859     0.71639
       968 33579.18965    84.37324    86.86623     0.64884
       969 33606.05301    84.03298    86.44222     0.65054
       970 33632.93785    75.57656    77.49442     0.72402
       971 33659.84420    66.59173    68.02293     0.82297
       972 33686.77207    61.40376    64.64925     0.86397
       973 33713.72149    59.43347    60.93710     0.91454
       974 33740.69247    58.86094    60.39139     0.92073
       975 33767.68502    58.68664    60.22201     0.92123
       976 33794.69917    58.60936    58.29966     0.94944
       977 33821.73493    58.56460    59.28366     0.93156
       978 33848.79232    58.53732    56.75077     0.97092
       979 33875.87135    58.52149    58.46169     0.94038
       980 33902.97205    58.51373    58.64717     0.93531
       981 33930.09443    58.51196    58.11853     0.94175
       982 33957.23850    58.51487    59.59895     0.91638
       983 33984.40429    58.52162    57.02750     0.95568
       984 34011.59182    58.53177    58.81847     0.92467
       985 34038.80109    58.54515    57.18763     0.94911
       986 34066.03213    58.56169    57.78186     0.93748
       987 34093.28496    58.58259    60.37424     0.89546
       988 34120.55958    58.60903    59.02792     0.91410
       989 34147.85603    58.63839    61.48264     0.87590
       990 34175.17432    58.67184    59.50115     0.90329
       991 34202.51446    58.71188    60.25456     0.89021
       992 34229.87647    58.76048    61.50005     0.87038
       993 34257.26037    58.82047    60.73352     0.87948
       994 34284.66618    58.89613    59.53833     0.89511
       995 34312.09391    58.99412    60.65880     0.87648
       996 34339.54359    59.12504    59.22905     0.89536
       997 34367.01522    59.30903    60.57994     0.87304
       998 34394.50883    59.60774    60.20255     0.87602
       999 34422.02444    60.31399    61.78955     0.85098
      1000 34449.56206    62.67037    63.86948     0.82073
      1001 34477.12171    70.07481    72.28229     0.72291
      1002 34504.70341    86.95806    91.79100     0.56744
      1003 34532.30717   111.43300   119.74717     0.43356
      1004 34559.93301   128.24208   136.05588     0.38036
      1005 34587.58096   121.02054   126.70094     0.40715
      1006 34615.25103    97.48101   107.90545     0.47657
      1007 34642.94323    76.35681    88.00866     0.58253
      1008 34670.65758    65.17845    76.39551     0.66909
      1009 34698.39411    61.13471    67.94415     0.75015
      1010 34726.15282    59.94947    62.60569     0.81184
      1011 34753.93374    59.54940    63.70268     0.79571
      1012 34781.73689    59.34634    60.48781     0.83580
      1013 34809.56228    59.21510    60.62249     0.83182
      1014 34837.40993    59.12411    59.89811     0.83979
      1015 34865.27986    59.05938    59.88260     0.83800
      1016 34893.17208    59.01278    56.66618     0.88351
      1017 34921.08662    58.97909    61.35790     0.81412
      1018 34949.02349    58.95047    59.68582     0.83511
      1019 34976.98271    58.93203    60.11291     0.82744
      1020 35004.96429    58.92092    58.38136     0.85026
      1021 35032.96827    58.91427    59.74656     0.82921
      1022 35060.99464    58.91125    60.24244     0.82085
      1023 35089.04344    58.91128    59.64120     0.82765
      1024 35117.11467    58.91400    59.54004     0.82764
      1025 35145.20836    58.91916    61.08017     0.80546
      1026 35173.32453    58.92665    60.62595     0.81023
      1027 35201.46319    58.93650    58.90285     0.83267
      1028 35229.62436    58.94887    59.86728     0.81806
      1029 35257.80806    58.96408    59.50284     0.82190
      1030 35286.01431    58.98268    57.70088     0.84640
      1031 35314.24312    59.00554    59.45775     0.82032
      1032 35342.49451    59.03400    59.28483     0.82169
      1033 35370.76851    59.07021    59.49679     0.81783
      1034 35399.06512    59.11775    61.34992     0.79228
      1035 35427.38437    59.18409    62.54288     0.77641
      1036 35455.72628    59.29553    59.34287     0.81753
      1037 35484.09086    59.57364    61.33191     0.79035
      1038 35512.47814    60.47686    61.31833     0.78991
      1039 35540.88812    63.09795    63.24485     0.76527
      1040 35569.32083    68.60145    71.02491     0.68093
      1041 35597.77629    75.99164    78.75493     0.61364
      1042 35626.25451    80.53484    80.74220     0.59807
      1043 35654.75551    77.88597    80.91300     0.59631
      1044 35683.27931    70.73550    73.55951     0.65533
      1045 35711.82594    64.43991    67.96303     0.70860
      1046 35740.39540    61.07351    64.87640     0.74152
      1047 35768.98771    59.82412    61.43540     0.78213
      1048 35797.60290    59.45038    62.13917     0.77228
      1049 35826.24099    59.32771    60.28510     0.79493
      1050 35854.90198    59.26957    61.31683     0.78037
      1051 35883.58590    59.23441    62.67377     0.76222
      1052 35912.29277    59.21183    59.45155     0.80210
      1053 35941.02260    59.19748    59.71396     0.79703
      1054 35969.77542    59.18883    59.71296     0.79537
      1055 35998.55124    59.17588    59.99528     0.78985
      1056 36027.35008    59.16706    58.74305     0.80475
      1057 36056.17196    59.16818    56.91915     0.82845
      1058 36085.01690    59.17106    59.59903     0.78912
      1059 36113.88491    59.17523    62.34003     0.75239
      1060 36142.77602    59.18041    61.03686     0.76634
      1061 36171.69024    59.18640    60.26406     0.77401
      1062 36200.62760    59.19305    60.00365     0.77518
      1063 36229.58810    59.20023    60.45337     0.76725
      1064 36258.57177    59.20784    60.53779     0.76402
      1065 36287.57863    59.21581    60.88219     0.75756
      1066 36316.60869    59.22409    60.72742     0.75736
      1067 36345.66198    59.23262    60.43976     0.75884
      1068 36374.73851    59.24280    62.16080     0.73577
      1069 36403.83830    59.25270    58.10176     0.78500
      1070 36432.96137    59.26192    59.71291     0.76172
      1071 36462.10774    59.27124    60.95599     0.74415
      1072 36491.27742    59.28068    60.08127     0.75296
      1073 36520.47044    59.29022    61.65973     0.73174
      1074 36549.68682    59.29986    60.62213     0.74230
      1075 36578.92657    59.30958    59.48769     0.75450
      1076 36608.18971    59.31937    62.43297     0.71706
      1077 36637.47626    59.32924    61.53963     0.72562
      1078 36666.78624    59.33916    59.36065     0.75035
      1079 36696.11967    59.34913    60.05104     0.73985
      1080 36725.47657    59.35915    60.29325     0.73502
      1081 36754.85695    59.36922    62.45944     0.70773
      1082 36784.26084    59.37933    59.82886     0.73698
      1083 36813.68824    59.38948    61.14132     0.71932
      1084 36843.13919    59.39967    62.09558     0.70646
      1085 36872.61371    59.40989    62.20887     0.70337
      1086 36902.11180    59.42014    60.53507     0.72097
      1087 36931.63349    59.43043    59.79366     0.72805
      1088 36961.17879    59.44075    60.24475     0.72077
      1089 36990.74774    59.45111    59.42717     0.72885
      1090 37020.34033    59.46150    59.62349     0.72462
      1091 37049.95661    59.47192    58.10426     0.74168
      1092 37079.59657    59.48238    60.92948     0.70547
      1093 37109.26025    59.49288    58.50109     0.73282
      1094 37138.94766    59.50257    60.69457     0.70443
      1095 37168.65882    59.50929    59.01064     0.72252
      1096 37198.39374    59.51997    61.17789     0.69495
      1097 37228.15246    59.53084    60.17565     0.70448
      1098 37257.93498    59.54177    59.87905     0.70590
      1099 37287.74133    59.55276    61.05314     0.69028
      1100 37317.57152    59.56383    60.02177     0.70005
      1101 37347.42558    59.57499    61.92040     0.67655
      1102 37377.30352    59.58626    59.40026     0.70315
      1103 37407.20536    59.59766    62.09853     0.67060
      1104 37437.13113    59.60921    60.28323     0.68876
      1105 37467.08083    59.62095    62.58570     0.66148
      1106 37497.05449    59.63292    60.44201     0.68296
      1107 37527.05214    59.64517    63.92021     0.64394
      1108 37557.07378    59.65777    59.74119     0.68703
      1109 37587.11944    59.67080    61.83951     0.66185
      1110 37617.18913    59.68438    61.93750     0.65898
      1111 37647.28289    59.69866    59.74786     0.68127
      1112 37677.40071    59.72013    61.21360     0.66318
      1113 37707.54263    59.74176    61.15308     0.66209
      1114 37737.70867    59.76070    63.96230     0.63136
      1115 37767.89883    59.78136    58.81451     0.68485
      1116 37798.11315    59.80515    58.76502     0.68369
      1117 37828.35164    59.83354    62.15538     0.64479
      1118 37858.61432    59.86936    61.20680     0.65318
      1119 37888.90122    59.92142    61.15351     0.65218
      1120 37919.21234    60.02739    60.62058     0.65635
      1121 37949.54771    60.32956    62.98104     0.63026
      1122 37979.90735    61.20008    64.36710     0.61524
      1123 38010.29127    63.17365    66.41810     0.59483
      1124 38040.69950    66.30470    68.20151     0.57788
      1125 38071.13206    69.29538    72.10766     0.54524
      1126 38101.58897    69.87594    72.16210     0.54346
      1127 38132.07024    67.51373    69.46167     0.56312
      1128 38162.57590    64.22777    68.13750     0.57251
      1129 38193.10596    61.81996    62.26205     0.62478
      1130 38223.66044    60.63845    63.96334     0.60641
      1131 38254.23937    60.21244    61.64485     0.62735
      1132 38284.84276    60.08333    63.54339     0.60677
      1133 38315.47064    60.04088    60.64356     0.63383
      1134 38346.12301    60.02261    62.58249     0.61227
      1135 38376.79991    60.01381    62.38995     0.61220
      1136 38407.50135    60.01047    60.46566     0.62963
      1137 38438.22735    60.01082    59.87545     0.63374
      1138 38468.97793    60.01381    63.46176     0.59592
      1139 38499.75312    60.01878    60.91970     0.61867
      1140 38530.55292    60.02526    62.30343     0.60283
      1141 38561.37736    60.03296    64.26019     0.58241
      1142 38592.22646    60.04167    60.09116     0.62061
      1143 38623.10024    60.05127    61.32744     0.60595
      1144 38653.99872    60.06166    63.05678     0.58725
      1145 38684.92192    60.07281    62.43825     0.59099
      1146 38715.86986    60.08468    62.00327     0.59307
      1147 38746.84256    60.09732    64.61941     0.56709
      1148 38777.84003    60.11074    62.32279     0.58597
      1149 38808.86230    60.12503    63.60820     0.57217
      1150 38839.90939    60.14029    63.90886     0.56753
      1151 38870.98132    60.15665    61.94255     0.58355
      1152 38902.07811    60.17430    61.48935     0.58583
      1153 38933.19977    60.19348    62.03597     0.57867
      1154 38964.34633    60.21449    65.38298     0.54714
      1155 38995.51781    60.23775    62.27647     0.57241
      1156 39026.71422    60.26379    62.81160     0.56548
      1157 39057.93559    60.29335    64.20241     0.55120
      1158 39089.18194    60.32741    62.14592     0.56731
      1159 39120.45328    60.36734    61.92527     0.56718
      1160 39151.74965    60.41940    63.73057     0.54905
      1161 39183.07105    60.48120    62.73436     0.55570
      1162 39214.41750    60.55470    62.79055     0.55318
      1163 39245.78904    60.64926    64.60323     0.53575
      1164 39277.18567    60.77761    60.53663     0.56976
      1165 39308.60742    60.97656    66.12378     0.51986
      1166 39340.05430    61.39458    63.51239     0.53944
      1167 39371.52635    62.57995    64.04186     0.53324
      1168 39403.02357    65.99744    67.74292     0.50249
      1169 39434.54599    74.01848    78.82960     0.43047
      1170 39466.09362    87.78847    93.23077     0.36286
      1171 39497.66650   103.36700   114.74031     0.29395
      1172 39529.26463   111.09162   118.91830     0.28278
      1173 39560.88804   104.38112   109.93614     0.30498
      1174 39592.53675    89.02834    96.98170     0.34469
      1175 39624.21078    74.89919    83.98087     0.39686
      1176 39655.91015    66.45826    72.34792     0.45929
      1177 39687.63488    62.80678    68.61509     0.48279
      1178 39719.38499    61.54413    64.22468     0.51421
      1179 39751.16050    61.11684    64.69816     0.50886
      1180 39782.96142    60.92843    63.52933     0.51660
      1181 39814.78779    60.81365    61.37429     0.53308
      1182 39846.63962    60.73536    62.97563     0.51791
      1183 39878.51694    60.67955    62.21753     0.52260
      1184 39910.41975    60.63887    62.99697     0.51454
      1185 39942.34808    60.60904    63.00841     0.51284
      1186 39974.30196    60.58720    62.27684     0.51722
      1187 40006.28140    60.57137    61.79324     0.51959
      1188 40038.28643    60.56018    59.74882     0.53559
      1189 40070.31706    60.55261    63.34064     0.50348
      1190 40102.37331    60.54793    62.02457     0.51234
      1191 40134.45521    60.54561    62.00228     0.51063
      1192 40166.56278    60.54523    62.05225     0.50825
      1193 40198.69603    60.54650    63.28981     0.49631
      1194 40230.85498    60.54918    64.45067     0.48533
      1195 40263.03967    60.55311    59.14295     0.52660
      1196 40295.25010    60.55817    62.72598     0.49434
      1197 40327.48630    60.56427    59.63719     0.51763
      1198 40359.74829    60.57137    61.36877     0.50078
      1199 40392.03609    60.57945    63.40822     0.48251
      1200 40424.34971    60.58854    61.88457     0.49221
      1201 40456.68919    60.59869    64.39982     0.47090
      1202 40489.05455    60.60999    62.09762     0.48624
      1203 40521.44579    60.62257    62.86389     0.47825
      1204 40553.86295    60.63663    63.36394     0.47248
      1205 40586.30604    60.65242    61.34624     0.48600
      1206 40618.77508    60.67030    63.91861     0.46456
      1207 40651.27010    60.69077    62.61571     0.47236
      1208 40683.79112    60.71448    61.09186     0.48229
      1209 40716.33815    60.74237    63.39975     0.46299
      1210 40748.91122    60.77576    60.55566     0.48296
      1211 40781.51035    60.81655    61.66588     0.47256
      1212 40814.13556    60.86765    61.26343     0.47399
      1213 40846.78687    60.93350    61.51091     0.47045
      1214 40879.46430    61.02324    63.52587     0.45397
      1215 40912.16787    61.16543    61.44685     0.46773
      1216 40944.89760    61.47152    64.30973     0.44539
      1217 40977.65352    62.32531    62.56679     0.45624
      1218 41010.43564    64.68465    65.97842     0.43118
      1219 41043.24399    70.01261    71.91760     0.39423
      1220 41076.07859    78.95828    81.01351     0.34876
      1221 41108.93945    89.12015    90.14030     0.31236
      1222 41141.82660    94.62193    96.41428     0.29099
      1223 41174.74006    91.01323    90.50600     0.30886
      1224 41207.67985    81.32342    80.68249     0.34518
      1225 41240.64600    71.75188    75.43964     0.36776
      1226 41273.63852    65.60198    68.67754     0.40241
      1227 41306.65743    62.72434    65.31751     0.42143
      1228 41339.70275    61.66005    63.61217     0.43099
      1229 41372.77451    61.29053    65.30220     0.41811
      1230 41405.87273    61.13525    59.98356     0.45330
      1231 41438.99743    61.05123    63.48335     0.42654
      1232 41472.14863    60.99458    63.00503     0.42800
      1233 41505.32635    60.95402    64.23269     0.41810
      1234 41538.53061    60.92439    63.82192     0.41908
      1235 41571.76143    60.90257    61.07639     0.43615
      1236 41605.01884    60.88646    60.26403     0.44028
      1237 41638.30286    60.87462    61.21901     0.43172
      1238 41671.61350    60.86605    64.60882     0.40749
      1239 41704.95079    60.85999    64.89561     0.40414
      1240 41738.31475    60.85591    60.01610     0.43532
      1241 41771.70540    60.85340    62.86005     0.41403
      1242 41805.12277    60.85216    58.31968     0.44455
      1243 41838.56687    60.85193    61.79687     0.41793
      1244 41872.03772    60.85255    62.50017     0.41165
      1245 41905.53535    60.85385    61.56669     0.41631
      1246 41939.05978    60.85572    62.38402     0.40933
      1247 41972.61103    60.85807    59.78274     0.42558
      1248 42006.18912    60.86082    57.15700     0.44354
      1249 42039.79407    60.86391    61.71091     0.40938
      1250 42073.42590    60.86728    62.03946     0.40583
      1251 42107.08464    60.87089    59.61380     0.42096
      1252 42140.77031    60.87472    59.40488     0.42109
      1253 42174.48293    60.87872    60.51190     0.41210
      1254 42208.22251    60.88287    63.38938     0.39221
      1255 42241.98909    60.88716    59.17830     0.41889
      1256 42275.78268    60.89156    63.39287     0.38993
      1257 42309.60331    60.89607    58.45902     0.42166
      1258 42343.45099    60.90067    60.85991     0.40390
      1259 42377.32575    60.90535    57.27937     0.42793
      1260 42411.22761    60.91012    60.06558     0.40689
      1261 42445.15659    60.91497    61.06882     0.39899
      1262 42479.11272    60.91991    60.72748     0.39996
      1263 42513.09601    60.92493    59.27762     0.40839
      1264 42547.10649    60.93007    59.19574     0.40752
      1265 42581.14417    60.93534    61.53719     0.39056
      1266 42615.20909    60.94079    63.48983     0.37708
      1267 42649.30125    60.94649    62.78444     0.37977
      1268 42683.42070    60.95269    60.94533     0.38957
      1269 42717.56743    60.95979    65.14850     0.36284
      1270 42751.74149    60.96906    57.83942     0.40683
      1271 42785.94288    60.98571    59.13693     0.39603
      1272 42820.17163    61.02319    59.80792     0.38971
      1273 42854.42777    61.10435    58.28825     0.39794
      1274 42888.71131    61.24721    62.34110     0.37026
      1275 42923.02228    61.43200    58.81113     0.39060
      1276 42957.36070    61.57959    63.81376     0.35828
      1277 42991.72659    61.59203    58.13431     0.39147
      1278 43026.11997    61.46290    60.95852     0.37164
      1279 43060.54087    61.28606    61.18340     0.36865
      1280 43094.98930    61.14611    59.35211     0.37841
      1281 43129.46529    61.06450    59.90983     0.37334
      1282 43163.96886    61.02939    61.26976     0.36361
      1283 43198.50004    61.02082    62.26869     0.35643
      1284 43233.05884    61.02049    59.46493     0.37188
      1285 43267.64528    61.02267    59.98816     0.36737
      1286 43302.25940    61.02566    56.72590     0.38722
      1287 43336.90121    61.02901    58.59428     0.37369
      1288 43371.57073    61.03257    62.02342     0.35197
      1289 43406.26799    61.03626    60.87071     0.35760
      1290 43440.99300    61.04003    59.51866     0.36472
      1291 43475.74579    61.04385    60.73689     0.35647
      1292 43510.52639    61.04770    58.75749     0.36757
      1293 43545.33481    61.05156    58.47759     0.36846
      1294 43580.17108    61.05542    59.81640     0.35942
      1295 43615.03522    61.05927    60.91960     0.35218
      1296 43649.92724    61.06310    60.99054     0.35109
      1297 43684.84719    61.06691    60.25567     0.35475
      1298 43719.79506    61.07069    59.36539     0.35951
      1299 43754.77090    61.07444    58.45870     0.36460
      1300 43789.77472    61.07816    59.41442     0.35835
      1301 43824.80654    61.08185    60.07642     0.35410
      1302 43859.86638    61.08551    59.22178     0.35897
      1303 43894.95428    61.08913    59.81426     0.35525
      1304 43930.07024    61.09272    61.57484     0.34499
      1305 43965.21429    61.09627    60.97451     0.34832
      1306 44000.38647    61.09978    56.97813     0.37271
      1307 44035.58678    61.10327    61.92502     0.34292
      1308 44070.81524    61.10672    64.60921     0.32867
      1309 44106.07190    61.11014    58.90961     0.36048
      1310 44141.35675    61.11354    61.45017     0.34559
      1311 44176.66984    61.11691    59.79998     0.35514
      1312 44212.01118    61.12025    60.31680     0.35211
      1313 44247.38078    61.12358    61.35344     0.34615
      1314 44282.77869    61.12689    61.26329     0.34664
      1315 44318.20491    61.13020    60.18826     0.35278
      1316 44353.65948    61.13351    61.14287     0.34720
      1317 44389.14240    61.13684    59.88802     0.35438
      1318 44424.65372    61.14019    56.13848     0.37791
      1319 44460.19344    61.14358    61.16090     0.34673
      1320 44495.76160    61.14705    58.64368     0.36143
      1321 44531.35820    61.15061    61.46255     0.34466
      1322 44566.98329    61.15431    59.89703     0.35343
      1323 44602.63688    61.15821    60.74539     0.34824
      1324 44638.31899    61.16239    59.99079     0.35233
      1325 44674.02964    61.16696    58.90638     0.35851
      1326 44709.76887    61.17210    61.09192     0.34537
      1327 44745.53668    61.17811    60.57764     0.34799
      1328 44781.33311    61.18576    60.15692     0.35011
      1329 44817.15818    61.19765    61.25595     0.34352
      1330 44853.01190    61.22282    56.50663     0.37206
      1331 44888.89431    61.28674    59.93785     0.35045
      1332 44924.80543    61.47931    61.18417     0.34299
      1333 44960.74527    61.78954    61.81353     0.33919
      1334 44996.71387    62.26010    61.25087     0.34198
      1335 45032.71124    62.76808    61.69096     0.33922
      1336 45068.73741    63.05338    59.78934     0.34967
      1337 45104.79240    62.91482    61.95611     0.33711
      1338 45140.87623    62.45893    61.01579     0.34194
      1339 45176.98893    61.95806    58.44695     0.35655
      1340 45213.13053    61.59368    58.04020     0.35860
      1341 45249.30103    61.39687    60.04580     0.34614
      1342 45285.50047    61.31383    59.94659     0.34617
      1343 45321.72887    61.28478    59.42340     0.34861
      1344 45357.98625    61.27546    59.92538     0.34502
      1345 45394.27264    61.27249    59.42316     0.34720
      1346 45430.58806    61.27179    61.45574     0.33494
      1347 45466.93253    61.27225    61.55946     0.33355
      1348 45503.30608    61.27348    56.83724     0.36032
      1349 45539.70872    61.27529    58.90115     0.34675
      1350 45576.14049    61.27756    62.15959     0.32766
      1351 45612.60140    61.28019    60.51689     0.33558
      1352 45649.09148    61.28315    60.30063     0.33579
      1353 45685.61076    61.28639    58.20366     0.34685
      1354 45722.15924    61.28990    57.63571     0.34920
      1355 45758.73697    61.29367    58.41011     0.34352
      1356 45795.34396    61.29770    59.78813     0.33458
      1357 45831.98024    61.30199    60.26972     0.33091
      1358 45868.64582    61.30655    61.75661     0.32198
      1359 45905.34074    61.31140    58.65840     0.33800
      1360 45942.06501    61.31656    58.06691     0.34047
      1361 45978.81866    61.32205    55.48931     0.35530
      1362 46015.60172    61.32791    59.40285     0.33100
      1363 46052.41420    61.33417    59.60957     0.32899
      1364 46089.25613    61.34087    60.16971     0.32510
      1365 46126.12754    61.34807    59.44640     0.32825
      1366 46163.02844    61.35582    59.74274     0.32584
      1367 46199.95886    61.36418    58.69830     0.33087
      1368 46236.91883    61.37324    58.62742     0.33050
      1369 46273.90836    61.38309    60.05559     0.32190
      1370 46310.92749    61.39382    58.58745     0.32921
      1371 46347.97623    61.40555    61.89571     0.31088
      1372 46385.05461    61.41843    61.00419     0.31466
      1373 46422.16266    61.43261    59.33005     0.32272
      1374 46459.30039    61.44828    59.53790     0.32075
      1375 46496.46783    61.46569    61.06444     0.31189
      1376 46533.66500    61.48510    61.44450     0.30910
      1377 46570.89193    61.50683    62.72565     0.30194
      1378 46608.14865    61.53129    63.37853     0.29800
      1379 46645.43516    61.55895    61.59087     0.30579
      1380 46682.75151    61.59040    60.48187     0.31055
      1381 46720.09771    61.62638    61.55076     0.30434
      1382 46757.47379    61.66779    60.58591     0.30839
      1383 46794.87977    61.71577    61.11252     0.30497
      1384 46832.31567    61.77179    60.34456     0.30812
      1385 46869.78153    61.83773    60.59069     0.30616
      1386 46907.27735    61.91605    62.88378     0.29436
      1387 46944.80317    62.00999    61.28142     0.30143
      1388 46982.35902    62.12395    58.96078     0.31268
      1389 47019.94490    62.26393    61.35305     0.29993
      1390 47057.56086    62.43833    62.65977     0.29316
      1391 47095.20691    62.65939    63.69428     0.28790
      1392 47132.88307    62.94656    61.78046     0.29632
      1393 47170.58938    63.33964    65.22191     0.28021
      1394 47208.32585    63.95358    63.24966     0.28846
      1395 47246.09251    65.17487    65.44509     0.27831
      1396 47283.88939    68.17997    68.80547     0.26425
      1397 47321.71650    75.79070    74.38425     0.24399
      1398 47359.57387    92.80928    92.84822     0.19511
      1399 47397.46153   123.82239   124.76985     0.14492
      1400 47435.37950   167.53428   175.99537     0.10254
      1401 47473.32780   211.31434   222.88552     0.08080
      1402 47511.30647   233.08645   235.99155     0.07615
      1403 47549.31551   218.18733   218.22694     0.08217
      1404 47587.35496   176.90604   181.17422     0.09874
      1405 47625.42485   131.66117   145.36204     0.12276
      1406 47663.52519    97.63176   114.15756     0.15592
      1407 47701.65601    78.11054    92.54247     0.19185
      1408 47739.81733    69.10632    79.96366     0.22145
      1409 47778.00919    65.51814    75.01651     0.23545
      1410 47816.23159    64.09517    67.77037     0.25997
      1411 47854.48458    63.41265    67.31403     0.26108
      1412 47892.76817    62.98995    63.43143     0.27637
      1413 47931.08238    62.68515    66.96107     0.26116
      1414 47969.42725    62.45161    64.14145     0.27199
      1415 48007.80279    62.26773    64.11933     0.27145
      1416 48046.20903    62.12030    62.13542     0.27947
      1417 48084.64600    62.00032    61.12143     0.28347
      1418 48123.11371    61.90137    62.99419     0.27443
      1419 48161.61221    61.81881    61.97684     0.27830
      1420 48200.14150    61.74921    61.59506     0.27939
      1421 48238.70161    61.69000    62.61036     0.27423
      1422 48277.29257    61.63919    63.16382     0.27120
      1423 48315.91440    61.59528    66.41194     0.25734
      1424 48354.56714    61.55708    66.33313     0.25704
      1425 48393.25079    61.52365    63.66857     0.26716
      1426 48431.96539    61.49424    65.94279     0.25733
      1427 48470.71096    61.46825    60.96356     0.27768
      1428 48509.48753    61.44520    65.02209     0.25971
      1429 48548.29512    61.42470    61.56356     0.27361
      1430 48587.13376    61.40643    61.30429     0.27407
      1431 48626.00346    61.39011    62.83743     0.26668
      1432 48664.90427    61.37554    60.67214     0.27546
      1433 48703.83619    61.36254    62.81676     0.26534
      1434 48742.79926    61.35096    60.28074     0.27575
      1435 48781.79350    61.34069    64.06274     0.25877
      1436 48820.81893    61.33166    60.48187     0.27337
      1437 48859.87559    61.32377    62.33397     0.26457
      1438 48898.96349    61.31699    59.56935     0.27617
      1439 48938.08266    61.31126    59.71011     0.27487
      1440 48977.23313    61.30658    60.39501     0.27114
      1441 49016.41491    61.30295    60.89339     0.26834
      1442 49055.62804    61.30037    62.85968     0.25941
      1443 49094.87255    61.29889    61.63303     0.26404
      1444 49134.14845    61.29856    62.24481     0.26094
      1445 49173.45576    61.29943    58.29221     0.27811
      1446 49212.79453    61.30162    63.22352     0.25593
      1447 49252.16476    61.30522    59.19636     0.27281
      1448 49291.56650    61.31038    59.93291     0.26893
      1449 49330.99975    61.31729    66.02044     0.24365
      1450 49370.46455    61.32617    60.17327     0.26679
      1451 49409.96092    61.33729    64.91254     0.24682
      1452 49449.48889    61.35098    59.53807     0.26856
      1453 49489.04848    61.36766    59.90619     0.26639
      1454 49528.63972    61.38783    58.01380     0.27454
      1455 49568.26263    61.41213    64.16430     0.24775
      1456 49607.91724    61.44140    63.46696     0.25000
      1457 49647.60357    61.47665    60.11436     0.26344
      1458 49687.32166    61.51917    59.78640     0.26438
      1459 49727.07152    61.57066    63.96001     0.24665
      1460 49766.85317    61.63332    60.72209     0.25928
      1461 49806.66665    61.71013    60.21140     0.26094
      1462 49846.51199    61.80506    61.36105     0.25550
      1463 49886.38920    61.92364    59.19559     0.26426
      1464 49926.29831    62.07370    61.31698     0.25454
      1465 49966.23935    62.26734    59.66309     0.26098
      1466 50006.21234    62.52764    62.64076     0.24797
      1467 50046.21731    62.91536    65.44377     0.23676
      1468 50086.25428    63.62226    64.89998     0.23813
      1469 50126.32329    65.20581    63.90195     0.24122
      1470 50166.42434    69.10782    67.84393     0.22660
      1471 50206.55748    78.03150    78.13363     0.19624
      1472 50246.72273    95.30494    91.74650     0.16668
      1473 50286.92011   122.42102   123.91844     0.12308
      1474 50327.14964   155.31717   157.76711     0.09642
      1475 50367.41136   182.65293   184.40353     0.08228
      1476 50407.70529   190.17435   185.79705     0.08146
      1477 50448.03146   173.12078   171.42487     0.08807
      1478 50488.38988   141.72137   147.21136     0.10230
      1479 50528.78059   110.13838   122.93819     0.12221
      1480 50569.20362    86.89289    97.54192     0.15366
      1481 50609.65898    73.39251    82.72161     0.18077
      1482 50650.14671    66.92902    71.85096     0.20765
      1483 50690.66683    64.21603    70.39959     0.21146
      1484 50731.21936    63.09157    63.01520     0.23571
      1485 50771.80434    62.54600    60.59019     0.24461
      1486 50812.42178    62.21042    60.25096     0.24544
      1487 50853.07172    61.96807    59.57327     0.24768
      1488 50893.75417    61.78034    61.06952     0.24105
      1489 50934.46918    61.63032    63.73517     0.23042
      1490 50975.21675    61.50807    58.22837     0.25158
      1491 51015.99693    61.40682    59.13251     0.24709
      1492 51056.80972    61.32175    59.84181     0.24350
      1493 51097.65517    61.24935    58.84161     0.24694
      1494 51138.53330    61.18698    61.70797     0.23478
      1495 51179.44412    61.13266    58.02059     0.24893
      1496 51220.38768    61.08488    59.38467     0.24245
      1497 51261.36399    61.04246    55.53414     0.25843
      1498 51302.37308    61.00445    58.51113     0.24448
      1499 51343.41498    60.97009    57.65098     0.24732
      1500 51384.48971    60.93881    57.76912     0.24601
      1501 51425.59730    60.91011    59.01410     0.24005
      1502 51466.73778    60.88362    59.83731     0.23600
      1503 51507.91117    60.85901    58.45847     0.24083
      1504 51549.11750    60.83600    61.05660     0.22989
      1505 51590.35679    60.81439    52.73414     0.26538
      1506 51631.62908    60.79397    61.63108     0.22641
      1507 51672.93438    60.77460    57.42400     0.24230
      1508 51714.27273    60.75614    61.40551     0.22596
      1509 51755.64415    60.73846    58.90097     0.23492
      1510 51797.04866    60.72149    56.66962     0.24350
      1511 51838.48630    60.70512    62.99957     0.21845
      1512 51879.95709    60.68929    57.70790     0.23782
      1513 51921.46106    60.67394    58.52820     0.23383
      1514 51962.99822    60.65900    59.06451     0.23104
      1515 52004.56862    60.64443    53.65509     0.25357
      1516 52046.17228    60.63019    60.01313     0.22601
      1517 52087.80922    60.61625    56.50406     0.23930
      1518 52129.47946    60.60255    56.90691     0.23685
      1519 52171.18305    60.58909    59.32274     0.22647
      1520 52212.91999    60.57582    60.63366     0.22087
      1521 52254.69033    60.56273    58.80590     0.22700
      1522 52296.49408    60.54980    58.69355     0.22671
      1523 52338.33128    60.53700    58.87964     0.22528
      1524 52380.20194    60.52432    62.54234     0.21143
      1525 52422.10610    60.51175    55.37587     0.23806
      1526 52464.04379    60.49927    61.40038     0.21406
      1527 52506.01502    60.48686    57.99352     0.22597
      1528 52548.01983    60.47453    58.31189     0.22410
      1529 52590.05825    60.46225    54.25378     0.24019
      1530 52632.13030    60.45003    57.86458     0.22459
      1531 52674.23600    60.43785    57.78795     0.22429
      1532 52716.37539    60.42569    58.48103     0.22105
      1533 52758.54849    60.41357    54.75445     0.23549
      1534 52800.75533    60.40146    59.87104     0.21481
      1535 52842.99593    60.38937    56.51546     0.22699
      1536 52885.27033    60.37729    56.65869     0.22584
      1537 52927.57855    60.36520    55.54808     0.22978
      1538 52969.92061    60.35312    60.16430     0.21162
      1539 53012.29655    60.34103    57.55920     0.22064
      1540 53054.70638    60.32894    59.83659     0.21171
      1541 53097.15015    60.31683    60.86252     0.20760
      1542 53139.62787    60.30471    55.23214     0.22815
      1543 53182.13957    60.29256    56.02014     0.22433
      1544 53224.68528    60.28040    61.12416     0.20502
      1545 53267.26503    60.26820    59.21616     0.21103
      1546 53309.87884    60.25576    61.06848     0.20406
      1547 53352.52675    60.21669    54.56085     0.22775
      1548 53395.20877    60.20279    57.37641     0.21597
      1549 53437.92493    60.19128    58.26508     0.21209
      1550 53480.67527    60.17970    58.26643     0.21149
      1551 53523.45981    60.16805    55.50142     0.22140
      1552 53566.27858    60.15633    55.25092     0.22177
      1553 53609.13161    60.14455    55.24382     0.22118
      1554 53652.01891    60.13270    56.95850     0.21392
      1555 53694.94053    60.12078    59.99732     0.20252
      1556 53737.89648    60.10879    56.20022     0.21561
      1557 53780.88680    60.09674    58.42020     0.20686
      1558 53823.91150    60.08462    54.92470     0.21944
      1559 53866.97063    60.07243    58.22995     0.20645
      1560 53910.06421    60.06017    55.54658     0.21585
      1561 53953.19226    60.04785    57.36491     0.20846
      1562 53996.35482    60.03546    59.69693     0.19979
      1563 54039.55190    60.02300    55.56966     0.21406
      1564 54082.78354    60.01047    56.90164     0.20848
      1565 54126.04977    59.99787    59.76540     0.19793
      1566 54169.35061    59.98521    57.73133     0.20433
      1567 54212.68609    59.97248    55.77301     0.21089
      1568 54256.05624    59.95968    53.46341     0.21936
      1569 54299.46108    59.94681    62.25790     0.18782
      1570 54342.90065    59.94684    58.66636     0.19874
      1571 54386.37497    59.94055    60.90130     0.19089
      1572 54429.88407    59.92806    56.41907     0.20546
      1573 54473.42798    59.91540    57.44770     0.20120
      1574 54517.00672    59.90269    57.35464     0.20094
      1575 54560.62033    59.88992    60.39419     0.19027
      1576 54604.26882    59.87711    54.89872     0.20870
      1577 54647.95224    59.86425    52.43531     0.21786
      1578 54691.67060    59.85135    62.95214     0.18092
      1579 54735.42394    59.83839    57.59317     0.19717
      1580 54779.21227    59.82540    59.09284     0.19158
      1581 54823.03564    59.81236    55.73122     0.20251
      1582 54866.89407    59.79927    57.86245     0.19444
      1583 54910.78759    59.78615    54.74964     0.20484
      1584 54954.71622    59.77299    57.61379     0.19401
      1585 54998.67999    59.75979    59.78349     0.18634
      1586 55042.67894    59.74656    57.28954     0.19378
      1587 55086.71308    59.73329    54.78337     0.20192
      1588 55130.78245    59.71999    57.70814     0.19098
      1589 55174.88708    59.70666    53.82881     0.20397
      1590 55219.02698    59.69330    55.86685     0.19576
      1591 55263.20221    59.67992    59.85147     0.18201
      1592 55307.41277    59.66652    55.57462     0.19524
      1593 55351.65870    59.65310    60.23865     0.17940
      1594 55395.94003    59.63966    57.96951     0.18569
      1595 55440.25678    59.62621    61.64628     0.17394
      1596 55484.60898    59.61275    62.90977     0.16980
      1597 55528.99667    59.59929    57.78454     0.18418
      1598 55573.41987    59.58582    59.30883     0.17882
      1599 55617.87860    59.57236    58.56460     0.18048
      1600 55662.37291    59.55891    58.66107     0.17959
      1601 55706.90280    59.54547    59.70067     0.17592
      1602 55751.46833    59.53206    54.33717     0.19272
      1603 55796.06950    59.51868    60.42272     0.17283
      1604 55840.70636    59.50533    58.07840     0.17936
      1605 55885.37892    59.49202    59.26818     0.17536
      1606 55930.08723    59.47877    52.83091     0.19634
      1607 55974.83129    59.46558    58.04087     0.17840
      1608 56019.61116    59.45246    51.55044     0.20057
      1609 56064.42685    59.43942    55.00563     0.18773
      1610 56109.27839    59.42649    57.97546     0.17792
      1611 56154.16581    59.41367    52.50192     0.19627
      1612 56199.08915    59.40098    56.04706     0.18368
      1613 56244.04842    59.38843    56.38574     0.18243
      1614 56289.04366    59.37606    57.88719     0.17756
      1615 56334.07489    59.36388    55.00399     0.18675
      1616 56379.14215    59.35193    57.07957     0.17986
      1617 56424.24546    59.34022    55.74161     0.18409
      1618 56469.38486    59.32879    53.42345     0.19201
      1619 56514.56037    59.31768    57.14555     0.17945
      1620 56559.77202    59.30693    57.64577     0.17785
      1621 56605.01983    59.29660    52.97130     0.19352
      1622 56650.30385    59.28674    57.07271     0.17960
      1623 56695.62409    59.27741    57.75735     0.17746
      1624 56740.98059    59.26868    56.39397     0.18175
      1625 56786.37338    59.26066    56.69440     0.18076
      1626 56831.80248    59.25344    59.24969     0.17291
      1627 56877.26792    59.24713    54.30132     0.18856
      1628 56922.76973    59.24189    54.24869     0.18859
      1629 56968.30795    59.23787    55.97307     0.18257
      1630 57013.88259    59.23529    56.93390     0.17924
      1631 57059.49370    59.23436    60.17135     0.16931
      1632 57105.14130    59.23540    61.37115     0.16567
      1633 57150.82541    59.23874    55.39433     0.18315
      1634 57196.54607    59.24484    56.80958     0.17817
      1635 57242.30331    59.25422    53.88032     0.18739
      1636 57288.09715    59.26755    57.29529     0.17577
      1637 57333.92763    59.28566    57.74347     0.17395
      1638 57379.79477    59.30962    53.50325     0.18724
      1639 57425.69860    59.34081    54.94465     0.18185
      1640 57471.63916    59.38103    59.70205     0.16693
      1641 57517.61647    59.43265    55.52642     0.17904
      1642 57563.63057    59.49889    56.56863     0.17531
      1643 57609.68147    59.58436    57.71143     0.17144
      1644 57655.76922    59.69648    54.90194     0.17981
      1645 57701.89383    59.85035    54.71225     0.18006
      1646 57748.05535    60.08466    54.82015     0.17935
      1647 57794.25379    60.50663    52.78175     0.18594
      1648 57840.48919    61.39350    61.34497     0.15970
      1649 57886.76159    63.35952    63.69448     0.15356
      1650 57933.07100    67.50532    63.18186     0.15456
      1651 57979.41745    75.30668    73.54074     0.13258
      1652 58025.80099    87.94092    84.04194     0.11581
      1653 58072.22163   105.06570   105.91275     0.09173
      1654 58118.67940   123.69472   118.18968     0.08204
      1655 58165.17435   138.15286   127.74692     0.07574
      1656 58211.70649   142.21577   131.56382     0.07337
      1657 58258.27585   133.78528   121.29022     0.07939
      1658 58304.88247   116.98054   105.56297     0.09099
      1659 58351.52638    98.26922   102.70378     0.09329
      1660 58398.20760    82.49918    85.39093     0.11191
      1661 58444.92617    71.64260    73.65319     0.12941
      1662 58491.68211    65.32769    67.11191     0.14165
      1663 58538.47545    62.12673    65.17262     0.14550
      1664 58585.30623    60.64060    56.76789     0.16664
      1665 58632.17448    59.94906    60.07721     0.15710
      1666 58679.08022    59.58483    56.70330     0.16608
      1667 58726.02348    59.35255    56.39297     0.16666
      1668 58773.00430    59.18047    55.75516     0.16824
      1669 58820.02270    59.04263    58.52817     0.15997
      1670 58867.07872    58.92807    52.96260     0.17647
      1671 58914.17239    58.83077    54.44899     0.17135
      1672 58961.30372    58.74676    55.07915     0.16910
      1673 59008.47277    58.67316    59.57972     0.15607
      1674 59055.67954    58.60783    53.21117     0.17447
      1675 59102.92409    58.54915    58.68520     0.15796
      1676 59150.20643    58.50764    57.47383     0.16105
      1677 59197.52659    58.46498    56.90716     0.16242
      1678 59244.88461    58.42025    54.60632     0.16902
      1679 59292.28052    58.37851    57.18340     0.16116
      1680 59339.71435    58.33932    56.07612     0.16409
      1681 59387.18612    58.30230    57.69085     0.15924
      1682 59434.69587    58.26713    50.26566     0.18246
      1683 59482.24362    58.23352    55.05122     0.16630
      1684 59529.82942    58.20127    50.22585     0.18195
      1685 59577.45328    58.17018    59.19515     0.15411
      1686 59625.11524    58.14011    54.79883     0.16617
      1687 59672.81534    58.11091    58.74961     0.15471
      1688 59720.55359    58.08249    54.67239     0.16594
      1689 59768.33003    58.05475    52.57258     0.17222
      1690 59816.14470    58.02759    55.11901     0.16392
      1691 59863.99761    58.00097    56.02025     0.16092
      1692 59911.88881    57.97481    51.15214     0.17580
      1693 59959.81832    57.94906    59.98067     0.14954
      1694 60007.78617    57.92368    56.56718     0.15813
      1695 60055.79240    57.89862    58.63449     0.15212
      1696 60103.83704    57.87387    53.18547     0.16721
      1697 60151.92011    57.84937    57.29394     0.15476
      1698 60200.04164    57.82512    58.03647     0.15231
      1699 60248.20168    57.80108    51.74895     0.17028
      1700 60296.40024    57.77724    55.89567     0.15715
      1701 60344.63736    57.75358    57.89916     0.15124
      1702 60392.91307    57.73008    50.29299     0.17356
      1703 60441.22740    57.70673    58.49826     0.14874
      1704 60489.58038    57.68352    54.99411     0.15772
      1705 60537.97204    57.66043    58.75097     0.14717
      1706 60586.40242    57.63747    56.72624     0.15196
      1707 60634.87154    57.61462    58.29050     0.14745
      1708 60683.37944    57.59187    54.14054     0.15830
      1709 60731.92615    57.56923    51.24938     0.16676
      1710 60780.51169    57.54669    59.60229     0.14300
      1711 60829.13610    57.52424    47.29301     0.17973
      1712 60877.79940    57.50189    54.61591     0.15522
      1713 60926.50164    57.47963    48.37641     0.17477
      1714 60975.24285    57.45747    58.11542     0.14508
      1715 61024.02304    57.43540    58.63258     0.14341
      1716 61072.84226    57.41343    55.21722     0.15186
      1717 61121.70053    57.39156    58.47917     0.14299
      1718 61170.59789    57.36979    55.40271     0.15052
      1719 61219.53437    57.34814    53.75109     0.15472
      1720 61268.51000    57.32660    59.20249     0.14009
      1721 61317.52481    57.30518    56.33907     0.14681
      1722 61366.57883    57.28390    53.21557     0.15502
      1723 61415.67209    57.26276    54.08410     0.15213
      1724 61464.80463    57.24178    57.14859     0.14360
      1725 61513.97647    57.22097    52.53021     0.15583
      1726 61563.18765    57.20035    49.47734     0.16503
      1727 61612.43820    57.17993    58.06814     0.14028
      1728 61661.72815    57.15973    57.71122     0.14082
      1729 61711.05753    57.13978    55.86451     0.14515
      1730 61760.42638    57.12011    60.79584     0.13311
      1731 61809.83472    57.10074    49.51721     0.16314
      1732 61859.28259    57.08171    52.20301     0.15449
      1733 61908.77002    57.06305    59.61067     0.13508
      1734 61958.29703    57.04482    55.96732     0.14366
      1735 62007.86367    57.02706    57.41807     0.13983
      1736 62057.46996    56.99950    53.38505     0.15018
      1737 62107.11594    56.97427    53.08973     0.15079
      1738 62156.80163    56.95880    51.92145     0.15394
      1739 62206.52707    56.94408    55.89270     0.14277
      1740 62256.29229    56.93023    57.49996     0.13853
      1741 62306.09733    56.91737    56.22886     0.14138
      1742 62355.94220    56.90566    56.09578     0.14142
      1743 62405.82696    56.89528    57.10778     0.13860
      1744 62455.75162    56.88643    57.11994     0.13823
      1745 62505.71622    56.87937    53.20375     0.14802
      1746 62555.72079    56.87439    58.05756     0.13528
      1747 62605.76537    56.87188    56.04745     0.13975
      1748 62655.84998    56.87228    54.66718     0.14288
      1749 62705.97466    56.87615    50.45256     0.15439
      1750 62756.13944    56.88419    53.41839     0.14543
      1751 62806.34435    56.89726    55.35909     0.13998
      1752 62856.58943    56.91649    51.73746     0.14943
      1753 62906.87470    56.94328    53.14514     0.14516
      1754 62957.20020    56.97950    56.49723     0.13628
      1755 63007.56596    57.02760    56.47011     0.13610
      1756 63057.97201    57.09104    57.73884     0.13288
      1757 63108.41839    57.17526    52.34901     0.14633
      1758 63158.90513    57.29068    55.17822     0.13860
      1759 63209.43225    57.46174    57.23289     0.13341
      1760 63259.99980    57.75085    55.62653     0.13703
      1761 63310.60780    58.31155    61.77734     0.12315
      1762 63361.25628    59.48077    57.68977     0.13161
      1763 63411.94529    61.88759    57.82029     0.13101
      1764 63462.67484    66.48412    66.30093     0.11397
      1765 63513.44498    74.33562    73.51174     0.10252
      1766 63564.25574    86.05313    94.74642     0.07931
      1767 63615.10714   100.99694   107.03871     0.07000
      1768 63665.99923   116.68294   120.21160     0.06214
      1769 63716.93203   128.90001   124.73294     0.05971
      1770 63767.90557   133.11721   129.81148     0.05721
      1771 63818.91990   127.44134   122.89124     0.06026
      1772 63869.97503   114.31825   104.54819     0.07063
      1773 63921.07101    98.39687   104.70246     0.07033
      1774 63972.20787    83.71603    81.02481     0.09063
      1775 64023.38564    72.50014    70.05165     0.10454
      1776 64074.60435    65.15725    65.72719     0.11111
      1777 64125.86403    60.94231    61.37965     0.11865
      1778 64177.16472    58.75946    60.03853     0.12096
      1779 64228.50645    57.68829    62.69540     0.11550
      1780 64279.88926    57.14774    53.73358     0.13438
      1781 64331.31317    56.83893    62.63429     0.11496
      1782 64382.77822    56.63067    53.47723     0.13427
      1783 64434.28444    56.47107    54.18122     0.13217
      1784 64485.83187    56.33990    54.46527     0.13113
      1785 64537.42053    56.22828    52.21953     0.13642
      1786 64589.05047    56.13129    58.26046     0.12197
      1787 64640.72171    56.04572    56.14376     0.12626
      1788 64692.43429    55.96920    54.71709     0.12926
      1789 64744.18824    55.89998    55.11805     0.12804
      1790 64795.98359    55.83669    55.37036     0.12721
      1791 64847.82037    55.77825    54.05075     0.13007
      1792 64899.69863    55.72385    58.70304     0.11956
      1793 64951.61839    55.67280    55.37152     0.12655
      1794 65003.57968    55.62457    54.88272     0.12749
      1795 65055.58255    55.57872    53.10038     0.13158
      1796 65107.62701    55.53490    50.73771     0.13751
      1797 65159.71312    55.49281    51.66801     0.13485
      1798 65211.84089    55.45221    55.47336     0.12543
      1799 65264.01036    55.41291    54.97130     0.12641
      1800 65316.22157    55.37471    60.66696     0.11439
      1801 65368.47454    55.33748    52.82068     0.13118
      1802 65420.76932    55.30109    55.36887     0.12493
      1803 65473.10594    55.26544    57.07212     0.12096
      1804 65525.48442    55.23044    54.29826     0.12685
      1805 65577.90481    55.19601    63.02479     0.10901
      1806 65630.36714    55.25969    54.44394     0.12584
      1807 65682.87143    55.24338    58.26867     0.11722
      1808 65735.41773    55.21248    50.96542     0.13359
      1809 65788.00606    55.18199    57.47443     0.11806
      1810 65840.63647    55.15187    56.19666     0.12033
      1811 65893.30897    55.12211    51.50131     0.13083
      1812 65946.02362    55.09267    55.71423     0.12049
      1813 65998.78044    55.06352    52.93456     0.12634
      1814 66051.57946    55.03465    53.73778     0.12397
      1815 66104.42073    55.00604    59.97115     0.11066
      1816 66157.30426    54.97767    52.63656     0.12560
      1817 66210.23011    54.94953    51.77113     0.12723
      1818 66263.19829    54.92161    54.24855     0.12097
      1819 66316.20885    54.89390    52.15365     0.12537
      1820 66369.26182    54.86639    52.80418     0.12337
      1821 66422.35723    54.83907    55.61347     0.11672
      1822 66475.49511    54.81193    55.03707     0.11753
      1823 66528.67551    54.78499    58.32753     0.11052
      1824 66581.89845    54.75822    61.62970     0.10426
      1825 66635.16397    54.73164    53.54485     0.11964
      1826 66688.47210    54.70523    50.56690     0.12632
      1827 66741.82288    54.67901    53.68252     0.11868
      1828 66795.21634    54.65296    53.96941     0.11776
      1829 66848.65251    54.62710    50.93606     0.12449
      1830 66902.13143    54.60142    52.62508     0.12024
      1831 66955.65314    54.57594    52.73524     0.11974
      1832 67009.21766    54.55065    57.92353     0.10879
      1833 67062.82503    54.52556    56.45547     0.11138
      1834 67116.47529    54.50067    58.96841     0.10641
      1835 67170.16847    54.47600    56.86433     0.11010
      1836 67223.90461    54.45155    55.87380     0.11179
      1837 67277.68373    54.42733    55.36049     0.11257
      1838 67331.50588    54.40335    57.41770     0.10829
      1839 67385.37108    54.37963    53.35727     0.11626
      1840 67439.27938    54.35618    51.53738     0.12010
      1841 67493.23080    54.33301    56.18092     0.10994
      1842 67547.22539    54.31013    48.83229     0.12623
      1843 67601.26317    54.28756    56.89072     0.10814
      1844 67655.34418    54.26533    54.71405     0.11224
      1845 67709.46845    54.24344    54.31869     0.11286
      1846 67763.63603    54.22193    53.59102     0.11421
      1847 67817.84694    54.20081    51.22164     0.11930
      1848 67872.10122    54.18011    50.97346     0.11969
      1849 67926.39890    54.15987    57.61655     0.10573
      1850 67980.74002    54.14011    54.57779     0.11146
      1851 68035.12461    54.12087    56.96094     0.10664
      1852 68089.55271    54.10217    53.25105     0.11391
      1853 68144.02435    54.08405    53.33033     0.11357
      1854 68198.53957    54.06657    56.72208     0.10661
      1855 68253.09840    54.04977    51.18793     0.11793
      1856 68307.70088    54.03369    53.44565     0.11273
      1857 68362.34704    54.01095    49.90574     0.12045
      1858 68417.03692    53.98657    51.86818     0.11560
      1859 68471.77055    53.97342    51.34856     0.11643
      1860 68526.54796    53.96129    49.32975     0.12082
      1861 68581.36920    53.95022    54.71783     0.10855
      1862 68636.23430    53.94031    51.36985     0.11520
      1863 68691.14328    53.93165    56.48708     0.10436
      1864 68746.09620    53.92437    50.92069     0.11531
      1865 68801.09308    53.91858    55.39955     0.10557
      1866 68856.13395    53.91444    50.81377     0.11464
      1867 68911.21886    53.91208    49.80603     0.11650
      1868 68966.34783    53.91169    55.18469     0.10475
      1869 69021.52091    53.91347    47.05150     0.12241
      1870 69076.73813    53.91763    53.13665     0.10802
      1871 69131.99952    53.92443    56.10388     0.10198
      1872 69187.30512    53.93415    58.02381     0.09831
      1873 69242.65496    53.94711    50.97581     0.11160
      1874 69298.04909    53.96367    57.27352     0.09908
      1875 69353.48753    53.98432    53.34753     0.10612
      1876 69408.97032    54.00948    49.92685     0.11313
      1877 69464.49749    54.03971    58.01889     0.09714
      1878 69520.06909    54.07565    54.23118     0.10371
      1879 69575.68514    54.11804    56.48879     0.09934
      1880 69631.34569    54.16774    54.83463     0.10210
      1881 69687.05077    54.22579    56.40711     0.09900
      1882 69742.80041    54.29336    59.61867     0.09341
      1883 69798.59465    54.37189    56.20121     0.09878
      1884 69854.43353    54.46306    53.13989     0.10411
      1885 69910.31707    54.56889    56.24188     0.09800
      1886 69966.24533    54.69184    54.83333     0.10011
      1887 70022.21832    54.83485    53.79799     0.10158
      1888 70078.23610    55.00158    55.34550     0.09827
      1889 70134.29869    55.19649    58.58832     0.09235
      1890 70190.40613    55.42516    58.16361     0.09252
      1891 70246.55845    55.69461    50.83059     0.10527
      1892 70302.75570    56.01377    53.75683     0.09897
      1893 70358.99790    56.39423    56.71891     0.09325
      1894 70415.28510    56.85173    58.19121     0.09037
      1895 70471.61733    57.40963    54.69936     0.09559
      1896 70527.99462    58.10840    59.04268     0.08807
      1897 70584.41702    59.03170    62.26137     0.08307
      1898 70640.88455    60.37199    64.13983     0.08022
      1899 70697.39726    62.57587    65.04655     0.07870
      1900 70753.95518    66.61507    59.27521     0.08595
      1901 70810.55834    74.38594    74.34035     0.06822
      1902 70867.20679    89.10039    90.92111     0.05552
      1903 70923.90055   115.30008   104.66103     0.04802
      1904 70980.63967   157.95532   168.29081     0.02973
      1905 71037.42419   220.29935   210.41299     0.02367
      1906 71094.25412   300.78787   289.62832     0.01712
      1907 71151.12953   390.50499   392.25114     0.01258
      1908 71208.05043   472.60802   446.53599     0.01100
      1909 71265.01687   525.23283   490.05725     0.00998
      1910 71322.02889   530.23948   475.44133     0.01024
      1911 71379.08651   485.61326   431.39995     0.01124
      1912 71436.18978   407.13703   381.15936     0.01266
      1913 71493.33873   316.90748   306.31252     0.01568
      1914 71550.53340   233.28110   239.97957     0.01992
      1915 71607.77383   166.89803   160.19684     0.02969
      1916 71665.06005   120.59819   128.86792     0.03673
      1917 71722.39209    91.74921   109.33368     0.04308
      1918 71779.77001    75.39899    90.66873     0.05170
      1919 71837.19382    66.73606    82.74496     0.05638
      1920 71894.66358    62.24368    70.64163     0.06573
      1921 71952.17931    59.80486    71.61067     0.06455
      1922 72009.74105    58.32446    61.27406     0.07511
      1923 72067.34885    57.29905    62.61609     0.07320
      1924 72125.00273    56.51367    60.22841     0.07581
      1925 72182.70273    55.87656    58.02742     0.07840
      1926 72240.44889    55.34424    59.76813     0.07586
      1927 72298.24125    54.89198    62.39429     0.07244
      1928 72356.07984    54.50326    58.14676     0.07749
      1929 72413.96471    54.16592    52.97416     0.08481
      1930 72471.89588    53.87064    56.02257     0.07997
      1931 72529.87339    53.61011    59.08062     0.07563
      1932 72587.89729    53.37852    61.70147     0.07223
      1933 72645.96761    53.17123    57.36065     0.07750
      1934 72704.08438    52.98448    59.98798     0.07392
      1935 72762.24765    52.81521    57.42606     0.07702
      1936 72820.45745    52.66090    57.33836     0.07695
      1937 72878.71382    52.51945    55.65244     0.07910
      1938 72937.01679    52.38915    60.55369     0.07254
      1939 72995.36640    52.26854    49.50133     0.08856
      1940 73053.76269    52.15638    59.65617     0.07334
      1941 73112.20570    52.05165    54.73070     0.07979
      1942 73170.69547    51.95345    49.09443     0.08879
      1943 73229.23202    51.86103    58.37358     0.07454
      1944 73287.81541    51.77373    50.87827     0.08537
      1945 73346.44566    51.69103    53.27390     0.08139
      1946 73405.12282    51.61242    51.98322     0.08326
      1947 73463.84692    51.53747    53.00458     0.08151
      1948 73522.61800    51.46578    52.17795     0.08264
      1949 73581.43609    51.39705    50.65600     0.08496
      1950 73640.30124    51.33098    52.39309     0.08197
      1951 73699.21348    51.26733    55.07662     0.07780
      1952 73758.17285    51.20587    54.26870     0.07878
      1953 73817.17939    51.14640    50.17724     0.08500
      1954 73876.23313    51.08876    53.58717     0.07940
      1955 73935.33412    51.03277    53.24144     0.07973
      1956 73994.48239    50.97831    51.70932     0.08190
      1957 74053.67797    50.92524    54.66161     0.07731
      1958 74112.92091    50.87345    50.50770     0.08350
      1959 74172.21125    50.82285    53.46102     0.07872
      1960 74231.54902    50.77335    49.75806     0.08441
      1961 74290.93426    50.72486    47.94956     0.08742
      1962 74350.36701    50.67729    46.85340     0.08928
      1963 74409.84730    50.63059    50.06749     0.08337
      1964 74469.37518    50.58469    52.33868     0.07958
      1965 74528.95068    50.53953    52.21835     0.07958
      1966 74588.57384    50.49506    47.51907     0.08724
      1967 74648.24470    50.45124    52.71508     0.07845
      1968 74707.96329    50.40802    47.03201     0.08770
      1969 74767.72966    50.36536    54.44808     0.07556
      1970 74827.54385    50.40251    48.50100     0.08460
      1971 74887.40588    50.36661    54.49840     0.07508
      1972 74947.31581    50.32683    54.65073     0.07466
      1973 75007.27366    50.28752    57.51331     0.07074
      1974 75067.27948    50.24865    52.01796     0.07798
      1975 75127.33330    50.21020    53.91498     0.07500
      1976 75187.43517    50.17216    58.06617     0.06940
      1977 75247.58512    50.13450    52.29314     0.07679
      1978 75307.78319    50.09720    58.48022     0.06842
      1979 75368.02941    50.06025    52.17437     0.07641
      1980 75428.32384    50.02364    51.11137     0.07771
      1981 75488.66649    49.98736    53.32928     0.07419
      1982 75549.05743    49.95138    49.47822     0.07965
      1983 75609.49667    49.91571    53.75159     0.07303
      1984 75669.98427    49.88032    47.57540     0.08218
      1985 75730.52026    49.84520    49.82524     0.07815
      1986 75791.10467    49.81036    44.87303     0.08641
      1987 75851.73756    49.77578    51.53264     0.07494
      1988 75912.41895    49.74146    54.60694     0.07042
      1989 75973.14888    49.70739    52.22352     0.07333
      1990 76033.92740    49.67356    50.08232     0.07615
      1991 76094.75454    49.63997    56.34901     0.06740
      1992 76155.63035    49.60662    54.20542     0.06977
      1993 76216.55485    49.57349    51.77354     0.07275
      1994 76277.52810    49.54060    52.77972     0.07108
      1995 76338.55012    49.50793    57.53030     0.06496
      1996 76399.62096    49.47549    56.66505     0.06571
      1997 76460.74066    49.44327    50.12419     0.07403
      1998 76521.90925    49.41128    50.29082     0.07354
      1999 76583.12678    49.37950    53.97780     0.06830
      2000 76644.39328    49.34794    51.15177     0.07185
      2001 76705.70879    49.31661    43.66427     0.08392
      2002 76767.07336    49.28550    53.64546     0.06811
      2003 76828.48702    49.25462    47.21052     0.07717
      2004 76889.94981    49.22396    48.44164     0.07500
      2005 76951.46177    49.19321    53.26341     0.06803
      2006 77013.02294    49.06614    55.06544     0.06563
      2007 77074.63335    49.02484    52.43905     0.06873
      2008 77136.29306    48.99740    47.85444     0.07511
      2009 77198.00210    48.97014    51.89772     0.06906
      2010 77259.76050    48.94306    42.53646     0.08401
      2011 77321.56831    48.91618    52.21108     0.06823
      2012 77383.42556    48.88949    52.37892     0.06780
      2013 77445.33230    48.86302    53.68559     0.06592
      2014 77507.28857    48.83676    55.57663     0.06346
      2015 77569.29440    48.81074    42.69145     0.08230
      2016 77631.34983    48.78497    49.42864     0.07081
      2017 77693.45491    48.75945    51.63362     0.06752
      2018 77755.60968    48.73420    48.67634     0.07133
      2019 77817.81416    48.70924    55.24407     0.06258
      2020 77880.06842    48.68457    41.82976     0.08230
      2021 77942.37247    48.66022    50.18479     0.06829
      2022 78004.72637    48.63619    45.72322     0.07462
      2023 78067.13015    48.61252    54.18068     0.06268
      2024 78129.58385    48.58921    55.02964     0.06142
      2025 78192.08752    48.56630    46.67507     0.07207
      2026 78254.64119    48.54380    50.79039     0.06590
      2027 78317.24490    48.52174    44.74146     0.07443
      2028 78379.89870    48.50015    47.68683     0.06948
      2029 78442.60262    48.47905    47.01951     0.07011
      2030 78505.35670    48.45847    46.64340     0.07033
      2031 78568.16099    48.43845    38.59500     0.08459
      2032 78631.01552    48.41902    47.69000     0.06815
      2033 78693.92033    48.40022    54.06587     0.05987
      2034 78756.87546    48.38210    46.51759     0.06932
      2035 78819.88096    48.36469    55.38913     0.05802
      2036 78882.93687    48.34807    46.19243     0.06936
      2037 78946.04322    48.33228    56.01314     0.05705
      2038 79009.20005    48.31738    52.05900     0.06125
      2039 79072.40741    48.30344    46.18272     0.06892
      2040 79135.66534    48.29053    53.16813     0.05978
      2041 79198.97387    48.27873    52.59235     0.06038
      2042 79262.33305    48.26814    47.58629     0.06668
      2043 79325.74292    48.25884    53.59588     0.05918
      2044 79389.20351    48.25094    47.92893     0.06617
      2045 79452.71487    48.24458    51.08021     0.06209
      2046 79516.27705    48.23988    49.49475     0.06409
      2047 79579.89007    48.23699    52.94768     0.05993
      2048 79643.55398    48.23608    45.36689     0.06997
      2049 79707.26882    48.23735    48.18007     0.06591
      2050 79771.03464    48.24101    49.72834     0.06389
      2051 79834.85147    48.24733    53.16267     0.05980
      2052 79898.71935    48.25654    50.30889     0.06322
      2053 79962.63832    48.26895    52.49238     0.06061
      2054 80026.60843    48.28492    48.08252     0.06618
      2055 80090.62972    48.30484    53.42388     0.05956
      2056 80154.70222    48.32917    53.43105     0.05955
      2057 80218.82599    48.35843    50.61408     0.06285
      2058 80283.00105    48.39323    52.83053     0.06019
      2059 80347.22745    48.43427    46.87240     0.06782
      2060 80411.50523    48.48238    47.20656     0.06731
      2061 80475.83443    48.53850    45.96944     0.06909
      2062 80540.21510    48.60376    46.30840     0.06855
      2063 80604.64727    48.67949    47.91075     0.06622
      2064 80669.13099    48.76727    50.14736     0.06323
      2065 80733.66630    48.86898    54.59636     0.05804
      2066 80798.25323    48.98688    52.73315     0.06005
      2067 80862.89183    49.12373    61.60338     0.05138
      2068 80927.58214    49.28286    55.93528     0.05657
      2069 80992.32421    49.46840    54.68128     0.05786
      2070 81057.11807    49.68548    51.83838     0.06103
      2071 81121.96376    49.94063    54.98999     0.05754
      2072 81186.86133    50.24255    57.49589     0.05506
      2073 81251.81082    50.60427    46.09599     0.06871
      2074 81316.81227    51.04645    47.95339     0.06610
      2075 81381.86572    51.60842    53.58039     0.05922
      2076 81446.97122    52.37152    56.98023     0.05575
      2077 81512.12879    53.50711    51.24236     0.06208
      2078 81577.33850    55.36354    54.92635     0.05801
      2079 81642.60037    58.60024    55.76678     0.05724
      2080 81707.91445    64.35190    60.66309     0.05272
      2081 81773.28078    74.35541    68.97532     0.04645
      2082 81838.69940    90.90965    92.84368     0.03457
      2083 81904.17036   116.50594   117.89581     0.02727
      2084 81969.69370   153.03049   153.46341     0.02098
      2085 82035.26945   200.63289   192.38330     0.01675
      2086 82100.89767   256.60848   255.73722     0.01261
      2087 82166.57839   314.77440   303.52181     0.01064
      2088 82232.31165   365.73290   342.91673     0.00942
      2089 82298.09750   398.48030   371.49443     0.00870
      2090 82363.93598   404.18363   347.23721     0.00931
      2091 82429.82713   381.08854   323.05055     0.01001
      2092 82495.77099   335.70150   306.94571     0.01054
      2093 82561.76760   278.75757   245.11640     0.01320
      2094 82627.81702   220.65195   187.93632     0.01721
      2095 82693.91927   169.01522   161.98010     0.01997
      2096 82760.07441   127.93954   118.09300     0.02739
      2097 82826.28247    98.27094   105.42584     0.03068
      2098 82892.54349    78.60525    89.04445     0.03632
      2099 82958.85753    66.50240    85.33181     0.03790
      2100 83025.22461    59.46979    69.86339     0.04630
      2101 83091.64479    55.50714    67.06433     0.04825
      2102 83158.11811    53.25276    52.52188     0.06163
      2103 83224.64460    51.89237    56.82692     0.05698
      2104 83291.22432    50.98819    54.02735     0.05995
      2105 83357.85730    50.32362    50.92144     0.06363
      2106 83424.54358    49.79720    48.74362     0.06650
      2107 83491.28322    49.36014    52.73628     0.06149
      2108 83558.07625    48.98791    53.95369     0.06012
      2109 83624.92271    48.66618    51.16681     0.06341
      2110 83691.82265    48.38529    51.77481     0.06267
      2111 83758.77610    48.13807    48.68902     0.06665
      2112 83825.78312    47.91896    47.14775     0.06883
      2113 83892.84375    47.72348    48.38396     0.06707
      2114 83959.95803    47.54805    53.32415     0.06084
      2115 84027.12599    47.38970    53.03151     0.06116
      2116 84094.34769    47.24603    45.65246     0.07101
      2117 84161.62317    47.11501    48.15011     0.06729
      2118 84228.95247    46.99497    51.58513     0.06276
      2119 84296.33563    46.88450    51.32331     0.06302
      2120 84363.77270    46.78242    52.30509     0.06177
      2121 84431.26372    46.68772    49.88372     0.06470
      2122 84498.80873    46.59953    46.83631     0.06884
      2123 84566.40778    46.51713    51.85318     0.06211
      2124 84634.06090    46.43987    44.13260     0.07291
      2125 84701.76815    46.36722    45.41306     0.07079
      2126 84769.52957    46.29869    44.82074     0.07168
      2127 84837.34519    46.23387    49.51253     0.06486
      2128 84905.21507    46.17242    47.34334     0.06781
      2129 84973.13924    46.11403    46.71898     0.06872
      2130 85041.11775    46.05839    46.39505     0.06922
      2131 85109.15064    46.00524    53.53039     0.06002
      2132 85177.23796    45.95439    50.07194     0.06422
      2133 85245.37975    45.90563    53.75742     0.05986
      2134 85313.57606    45.85880    38.18396     0.08436
      2135 85381.82692    45.81374    52.10285     0.06189
      2136 85450.13238    45.77031    46.47749     0.06944
      2137 85518.49249    45.72839    49.84472     0.06480
      2138 85586.90728    45.68788    50.73838     0.06370
      2139 85655.37681    45.64867    46.07209     0.07020
      2140 85723.90111    45.61067    47.28661     0.06843
      2141 85792.48023    45.57381    42.94045     0.07538
      2142 85861.11421    45.53803    54.34498     0.05959
      2143 85929.80310    45.50324    38.88593     0.08333
      2144 85998.54695    45.46939    49.96787     0.06488
      2145 86067.34578    45.43641    47.47166     0.06834
      2146 86136.19966    45.40426    52.36894     0.06199
      2147 86205.10862    45.37290    49.86798     0.06514
      2148 86274.07271    45.34228    50.44495     0.06445
      2149 86343.09197    45.31236    50.10038     0.06494
      2150 86412.16644    45.28312    45.45968     0.07162
      2151 86481.29617    45.25451    46.66189     0.06981
      2152 86550.48121    45.22652    49.09496     0.06638
      2153 86619.72159    45.19912    47.84854     0.06814
      2154 86689.01737    45.17228    43.23180     0.07544
      2155 86758.36858    45.14597    45.05450     0.07242
      2156 86827.77528    45.12018    42.88979     0.07611
      2157 86897.23750    45.09488    51.74339     0.06312
      2158 86966.75529    45.07006    50.47801     0.06476
      2159 87036.32869    45.04570    56.84336     0.05756
      2160 87105.95776    45.02179    49.14327     0.06666
      2161 87175.64252    44.99831    54.87194     0.05978
      2162 87245.38304    44.97526    49.93104     0.06578
      2163 87315.17934    44.95261    48.95935     0.06717
      2164 87385.03149    44.93036    41.00943     0.08027
      2165 87454.93951    44.90850    50.07886     0.06579
      2166 87524.90346    44.88702    48.53075     0.06793
      2167 87594.92339    44.86590    46.39040     0.07109
      2168 87664.99933    44.84514    39.10920     0.08434
      2169 87735.13133    44.82474    47.60404     0.06928
      2170 87805.31943    44.80468    47.61909     0.06924
      2171 87875.56369    44.78497    51.28212     0.06426
      2172 87945.86414    44.76559    49.79115     0.06615
      2173 88016.22083    44.74653    45.56415     0.07225
      2174 88086.63380    44.72780    50.74930     0.06484
      2175 88157.10311    44.70939    45.59451     0.07215
      2176 88227.62879    44.69129    44.07696     0.07464
      2177 88298.21090    44.67350    48.32477     0.06809
      2178 88368.84947    44.65602    45.57061     0.07223
      2179 88439.54455    44.63885    46.75249     0.07045
      2180 88510.29618    44.62197    48.82636     0.06753
      2181 88581.10442    44.60539    47.54718     0.06945
      2182 88651.96930    44.58910    51.09359     0.06474
      2183 88722.89088    44.57310    46.46562     0.07133
      2184 88793.86919    44.55740    44.85579     0.07405
      2185 88864.90429    44.54198    45.94557     0.07248
      2186 88935.99621    44.52685    51.81325     0.06444
      2187 89007.14501    44.51200    45.69644     0.07327
      2188 89078.35072    44.49744    44.67526     0.07515
      2189 89149.61340    44.48316    49.30698     0.06828
      2190 89220.93309    44.46916    48.88839     0.06904
      2191 89292.30984    44.45544    48.19350     0.07018
      2192 89363.74369    44.44199    45.75285     0.07404
      2193 89435.23468    44.42883    52.77692     0.06426
      2194 89506.78287    44.41594    49.20756     0.06897
      2195 89578.38830    44.40333    48.02186     0.07068
      2196 89650.05101    44.39099    48.92082     0.06936
      2197 89721.77105    44.72308    46.00721     0.07370
      2198 89793.54846    44.74621    49.89691     0.06788
      2199 89865.38330    44.73933    46.71915     0.07239
      2200 89937.27561    44.65201    54.80430     0.06159
      2201 90009.22543    44.64723    46.31322     0.07273
      2202 90081.23281    44.64331    47.61506     0.07057
      2203 90153.29780    44.63973    46.24541     0.07248
      2204 90225.42044    44.63650    51.15402     0.06535
      2205 90297.60077    44.63363    43.79239     0.07613
      2206 90369.83885    44.63112    44.81275     0.07420
      2207 90442.13472    44.62898    52.16931     0.06356
      2208 90514.48843    44.62720    42.02492     0.07870
      2209 90586.90002    44.62581    46.37522     0.07114
      2210 90659.36954    44.62480    47.71014     0.06897
      2211 90731.89704    44.62418    44.48956     0.07376
      2212 90804.48256    44.62395    52.87855     0.06187
      2213 90877.12614    44.62412    51.52744     0.06327
      2214 90949.82784    44.62470    45.26165     0.07176
      2215 91022.58770    44.62569    46.07654     0.07018
      2216 91095.40577    44.62711    44.12267     0.07294
      2217 91168.28210    44.62895    49.97690     0.06406
      2218 91241.21672    44.63122    48.06097     0.06624
      2219 91314.20970    44.63393    49.92950     0.06338
      2220 91387.26107    44.63710    48.97190     0.06421
      2221 91460.37087    44.64072    49.29115     0.06338
      2222 91533.53917    44.64480    47.36326     0.06553
      2223 91606.76600    44.64936    51.24566     0.06016
      2224 91680.05142    44.65439    46.35668     0.06608
      2225 91753.39546    44.65992    47.96188     0.06347
      2226 91826.79817    44.66595    45.60212     0.06636
      2227 91900.25961    44.67249    48.50985     0.06204
      2228 91973.77982    44.67954    50.08672     0.05979
      2229 92047.35884    44.68712    57.01572     0.05229
      2230 92120.99673    44.69524    41.41083     0.07173
      2231 92194.69353    44.70391    48.63999     0.06087
      2232 92268.44928    44.71315    40.98385     0.07204
      2233 92342.26404    44.72295    45.83036     0.06427
      2234 92416.13785    44.73334    50.33853     0.05841
      2235 92490.07076    44.74432    46.33068     0.06336
      2236 92564.06282    44.75592    49.46580     0.05926
      2237 92638.11407    44.76814    50.21241     0.05830
      2238 92712.22456    44.78101    44.11652     0.06628
      2239 92786.39434    44.79452    44.16514     0.06613
      2240 92860.62346    44.80870    54.14888     0.05389
      2241 92934.91196    44.82356    51.45804     0.05665
      2242 93009.25988    44.83913    46.01573     0.06328
      2243 93083.66729    44.85543    40.22152     0.07232
      2244 93158.13423    44.87246    55.75940     0.05210
      2245 93232.66073    44.89025    48.94502     0.05927
      2246 93307.24686    44.90881    46.95396     0.06169
      2247 93381.89266    44.92816    48.77177     0.05928
      2248 93456.59817    44.94834    50.26251     0.05740
      2249 93531.36345    44.96936    48.64403     0.05917
      2250 93606.18854    44.99127    49.46379     0.05804
      2251 93681.07349    45.01406    49.59407     0.05773
      2252 93756.01835    45.03776    52.87963     0.05400
      2253 93831.02317    45.06242    50.56606     0.05632
      2254 93906.08799    45.08804    47.18545     0.06019
      2255 93981.21286    45.11467    48.02669     0.05896
      2256 94056.39783    45.14236    46.04383     0.06132
      2257 94131.64295    45.17113    44.05352     0.06389
      2258 94206.94826    45.20101    39.55998     0.07093
      2259 94282.31382    45.23203    50.05763     0.05587
      2260 94357.73967    45.26425    46.63627     0.05977
      2261 94433.22586    45.29769    43.19386     0.06432
      2262 94508.77244    45.33241    52.00826     0.05324
      2263 94584.37946    45.36845    46.02411     0.05996
      2264 94660.04696    45.40590    37.81642     0.07272
      2265 94735.77500    45.44478    45.60379     0.06010
      2266 94811.56362    45.48515    50.51027     0.05409
      2267 94887.41287    45.52707    46.63229     0.05840
      2268 94963.32280    45.57060    51.20156     0.05302
      2269 95039.29346    45.61581    46.93522     0.05765
      2270 95115.32490    45.66278    53.77345     0.05015
      2271 95191.41715    45.71158    48.01704     0.05595
      2272 95267.57029    45.76231    48.95417     0.05466
      2273 95343.78434    45.81508    48.03279     0.05548
      2274 95420.05937    45.86995    46.73361     0.05678
      2275 95496.39542    45.92703    45.04811     0.05864
      2276 95572.79254    45.98643    42.96745     0.06121
      2277 95649.25077    46.04825    42.77450     0.06121
      2278 95725.77017    46.11264    46.79216     0.05572
      2279 95802.35079    46.17972    40.05112     0.06483
      2280 95878.99267    46.24964    43.68548     0.05921
      2281 95955.69586    46.32256    49.66320     0.05190
      2282 96032.46042    46.39871    45.93509     0.05592
      2283 96109.28639    46.47823    50.36777     0.05085
      2284 96186.17382    46.56131    52.85351     0.04833
      2285 96263.12275    46.64817    48.27612     0.05278
      2286 96340.13325    46.73903    47.99846     0.05295
      2287 96417.20536    46.83416    42.98737     0.05899
      2288 96494.33912    46.93383    49.02687     0.05159
      2289 96571.53460    47.03833    39.64418     0.06363
      2290 96648.79182    47.14801    49.30106     0.05102
      2291 96726.11086    47.26322    47.06283     0.05328
      2292 96803.49175    47.38436    49.22351     0.05076
      2293 96880.93454    47.51192    55.82798     0.04460
      2294 96958.43929    47.64639    52.81747     0.04696
      2295 97036.00604    47.78823    46.15141     0.05352
      2296 97113.63484    47.93803    51.63675     0.04763
      2297 97191.32575    48.09642    59.63122     0.04106
      2298 97269.07881    48.26412    45.95916     0.05302
      2299 97346.89407    48.44190    50.30417     0.04821
      2300 97424.77159    48.63064    55.11037     0.04379
      2301 97502.71141    48.83132    44.14133     0.05440
      2302 97580.71358    49.04502    45.19569     0.05287
      2303 97658.77815    49.27297    44.56970     0.05336
      2304 97736.90517    49.51654    46.88077     0.05050
      2305 97815.09469    49.77726    53.85926     0.04378
      2306 97893.34677    50.05688    49.37920     0.04757
      2307 97971.66145    50.35737    50.82929     0.04606
      2308 98050.03878    50.68134    47.55906     0.04907
      2309 98128.47881    51.03106    50.27248     0.04629
      2310 98206.98159    51.40947    51.69924     0.04490
      2311 98285.54717    51.81992    50.96655     0.04543
      2312 98364.17561    52.26632    51.52452     0.04482
      2313 98442.86695    52.75315    47.74392     0.04826
      2314 98521.62125    53.28563    51.78068     0.04438
      2315 98600.43854    53.86987    53.66479     0.04271
      2316 98679.31889    54.51301    54.25649     0.04212
      2317 98758.26235    55.22347    54.86262     0.04153
      2318 98837.26896    56.01124    47.99773     0.04731
      2319 98916.33877    56.88826    53.46718     0.04233
      2320 98995.47185    57.86898    53.66207     0.04202
      2321 99074.66822    58.97123    52.97696     0.04240
      2322 99153.92796    60.21790    50.06264     0.04469
      2323 99233.25110    61.64015    50.27921     0.04430
      2324 99312.63770    63.28421    67.19670     0.03300
      2325 99392.08781    65.22560    55.73906     0.03959
      2326 99471.60148    67.59751    54.19797     0.04051
      2327 99551.17876    70.64479    58.60165     0.03727
      2328 99630.81971    74.81890    70.42735     0.03085
      2329 99710.52436    80.93120    63.41899     0.03406
      2330 99790.29278    90.37457    75.90193     0.02829
      2331 99870.12502   105.40097    79.18615     0.02695
      2332 99950.02112   129.39846    99.51426     0.02131
      2333 100029.98113   167.04915   130.11786     0.01618
      2334 100110.00512   224.18967   155.93117     0.01341
      2335 100190.09312   307.17627   260.72416     0.00796
      2336 100270.24520   421.67140   371.56858     0.00554
      2337 100350.46139   570.72322   516.08876     0.00396
      2338 100430.74176   752.62200   760.79927     0.00266
      2339 100511.08635   959.28343   989.16974     0.00203
      2340 100591.49522  1175.29210  1160.97387     0.00172
      2341 100671.96842  1378.28366  1415.22060     0.00140
      2342 100752.50599  1541.01574  1530.17118     0.00128
      2343 100833.10800  1636.18958  1561.36643     0.00125
      2344 100913.77449  1644.88751  1545.60240     0.00125
      2345 100994.50550  1565.09626  1397.65428     0.00138
      2346 101075.30111  1412.75646  1179.67295     0.00162
      2347 101156.16135  1214.26224   970.78940     0.00196
      2348 101237.08628   997.54310   763.55365     0.00248
      2349 101318.07595   786.44600   608.21457     0.00310
      2350 101399.13041   598.10410   465.16077     0.00403
      2351 101480.24971   442.16124   333.65400     0.00560
      2352 101561.43391   321.48248   262.87756     0.00708
      2353 101642.68306   233.58894   198.54300     0.00934
      2354 101723.99721   172.97289   138.04618     0.01338
      2355 101805.37640   133.10321   112.95518     0.01630
      2356 101886.82071   107.82986   102.37435     0.01794
      2357 101968.33016    92.15061    92.78580     0.01975
      2358 102049.90483    82.42140    87.49380     0.02090
      2359 102131.54475    76.21728    82.70595     0.02208
      2360 102213.24999    72.04396    77.34395     0.02357
      2361 102295.02059    69.03801    63.18017     0.02881
      2362 102376.85660    66.72464    59.44383     0.03056
      2363 102458.75809    64.84996    57.92566     0.03129
      2364 102540.72509    63.27775    57.53788     0.03141
      2365 102622.75767    61.93148    55.51513     0.03245
      2366 102704.85588    60.76442    58.52490     0.03066
      2367 102787.01977    59.74494    66.07194     0.02703
      2368 102869.24938    58.84969    56.84317     0.03126
      2369 102951.54478    58.06037    62.25875     0.02838
      2370 103033.90602    57.36214    58.65394     0.02994
      2371 103116.33314    56.74274    47.57149     0.03668
      2372 103198.82621    56.19190    57.70229     0.03003
      2373 103281.38527    55.70098    55.77585     0.03086
      2374 103364.01038    55.26267    53.23284     0.03211
      2375 103446.70159    54.87074    57.70811     0.02943
      2376 103529.45895    54.51984    62.80675     0.02687
      2377 103612.28251    54.20541    53.02421     0.03165
      2378 103695.17234    53.92348    51.46240     0.03247
      2379 103758.91107    53.72741    27.00542     0.06170
      
data_d6_MAPbI3_350K_p_02
_diffrn_radiation_wavelength     2.665
# 1 Angstrom bandwith with centre wavelengths of 2.665 Angstrom  
loop_
_refln_index_h
_refln_index_k
_refln_index_l
_refln_d_spacing
_refln_F_squared_calc
_refln_F_squared_meas
   1   0   0     6.30649  1307.17623  1293.84542 
   1   1   0     4.45936  4172.77525  4322.48600 
   1   1   1     3.64105  1391.78350  1484.58173 
   2   0   0     3.15324  2483.69544  2564.21432 
   2   1   0     2.82035   498.27739   510.85680 
   2   1   1     2.57461   652.16111   650.77884 
   2   2   0     2.22968  1354.81205  1364.30881 
   2   2   1     2.10216  1824.45749  1826.78850 
   2   2   2     1.82053   538.40414   527.65747 
   3   0   0     2.10216   194.16970   194.41778 
   3   1   0     1.99429    24.12584    24.01252 
   3   1   1     1.90148     9.01766     8.82369 
   3   2   0     1.74911   878.93139   872.49692 
   3   2   1     1.68548   189.70617   192.84233 
   3   2   2     1.52955   577.85349   560.42370 
   3   3   0     1.48645    50.65450    49.42069 
   3   3   1     1.44681     8.12207     8.35716 
   3   3   2     1.34455   202.58096   198.19725 
   3   3   3     1.21368    14.67094    14.70192 
   4   0   0     1.57662   463.71481   453.11917 
   4   1   0     1.52955  1029.64475   998.58759 
   4   1   1     1.48645   619.05139   603.97291 
   4   2   0     1.41017  1391.98077  1358.57648 
   4   2   1     1.37619  1375.37934  1348.55948 
   4   2   2     1.28731  1042.06331   998.28815 
   4   3   0     1.26130   382.98841   377.49723 
   4   3   1     1.23680   752.53938   746.21692 
   4   3   2     1.17109   696.75970   658.03331 
   5   0   0     1.26130     5.58504     5.50497 
   5   1   0     1.23680    88.40198    87.65927 
   5   1   1     1.21368     0.00180     0.00180 
   5   2   0     1.17109    74.22829    70.10263 
   5   2   1     1.15140   178.51702   174.82455
loop_
_pd_proc_point_id
_pd_meas_time_of_flight
_pd_proc_intensity_total
_pd_calc_intensity_total
_pd_proc_ls_weight
         1 25984.00730    45.91446    41.59390     0.94217
         2 26004.79451    48.91690    46.50272     0.84393
         3 26025.59834    49.64551    49.39951     0.79785
         4 26046.41882    47.29664    46.51126     0.85333
         5 26067.25596    45.77379    46.89693     0.85435
         6 26088.10976    45.18824    44.62546     0.90839
         7 26108.98025    44.97154    46.18792     0.88969
         8 26129.86743    44.88605    45.77708     0.91146
         9 26150.77133    44.84773    44.62456     0.95061
        10 26171.69194    44.82888    44.05518     0.97998
        11 26192.62930    44.81929    46.80264     0.93952
        12 26213.58340    44.81372    47.22441     0.94882
        13 26234.55427    44.81095    45.67490     0.99991
        14 26255.54191    44.81114    47.15001     0.98735
        15 26276.54634    44.81503    43.30995     1.09556
        16 26297.56758    44.82416    42.71031     1.13202
        17 26318.60564    44.84143    43.06789     1.14349
        18 26339.66052    44.87251    45.55305     1.10068
        19 26360.73225    44.92945    44.29780     1.15171
        20 26381.82083    45.04236    43.54235     1.19150
        21 26402.92629    45.39012    46.29882     1.13875
        22 26424.04863    48.27113    49.04539     1.09169
        23 26445.18787    60.22554    56.29732     0.96517
        24 26466.34402    67.41222    62.82705     0.87707
        25 26487.51710    58.01380    54.09879     1.03223
        26 26508.70711    49.93393    46.91311     1.20545
        27 26529.91408    46.68019    47.35221     1.20862
        28 26551.13801    45.49370    44.21151     1.30918
        29 26572.37892    45.04262    43.14311     1.35602
        30 26593.63682    44.85295    43.72313     1.35167
        31 26614.91173    44.76429    44.24159     1.34878
        32 26636.20366    44.72115    44.10054     1.36565
        33 26657.51262    44.69453    44.50004     1.36548
        34 26678.83863    44.67452    44.29714     1.38362
        35 26700.18170    44.65837    44.40999     1.39181
        36 26721.54185    44.64475    43.51181     1.43244
        37 26742.91908    44.63288    44.04291     1.42697
        38 26764.31342    44.62228    44.89184     1.41172
        39 26785.72487    44.61260    43.76322     1.46041
        40 26807.15345    44.60364    42.64374     1.51169
        41 26828.59917    44.59522    45.31423     1.43520
        42 26850.06205    44.58724    45.11879     1.45453
        43 26871.54210    44.57970    44.77438     1.47949
        44 26893.03933    44.57243    44.31366     1.50939
        45 26914.55377    44.56536    45.32289     1.49063
        46 26936.08541    44.55849    43.65425     1.56374
        47 26957.63428    44.55173    44.99975     1.53335
        48 26979.20038    44.54024    44.87522     1.55478
        49 27000.78374    44.53180    44.54684     1.58434
        50 27022.38437    44.52528    45.63174     1.56513
        51 27044.00228    44.51941    45.10482     1.60289
        52 27065.63748    44.51377    44.43182     1.64777
        53 27087.28999    44.50824    45.30501     1.63699
        54 27108.95982    44.50278    46.20165     1.62654
        55 27130.64699    44.49739    45.33543     1.68005
        56 27152.35151    44.49205    45.27805     1.70528
        57 27174.07339    44.48678    44.54215     1.75756
        58 27195.81265    44.48159    45.46227     1.74616
        59 27217.56930    44.47649    44.91534     1.79242
        60 27239.34335    44.47152    45.44976     1.79650
        61 27261.13483    44.46671    46.38181     1.78546
        62 27282.94374    44.46215    46.42168     1.80930
        63 27304.77009    44.45800    44.80908     1.90104
        64 27326.61391    44.45462    45.15617     1.91312
        65 27348.47520    44.45307    45.75047     1.91486
        66 27370.35398    44.46738    45.55777     1.94988
        67 27392.25026    44.58663    45.46559     1.98102
        68 27414.16406    44.86883    44.74722     2.04064
        69 27436.09539    44.85502    44.48687     2.08076
        70 27458.04427    44.63513    45.25250     2.07346
        71 27480.01070    44.51248    44.61615     2.13152
        72 27501.99471    44.46188    44.41821     2.16982
        73 27523.99631    44.43997    44.54960     2.19231
        74 27546.01551    44.42951    44.71480     2.21315
        75 27568.05232    44.42383    45.01254     2.22740
        76 27590.10676    44.42048    44.54204     2.28025
        77 27612.17885    44.41872    44.57704     2.30787
        78 27634.26859    44.41814    44.10052     2.36264
        79 27656.37600    44.41877    46.22139     2.28279
        80 27678.50110    44.42087    44.55324     2.39800
        81 27700.64391    44.42494    45.38325     2.38343
        82 27722.80442    44.43171    45.18663     2.42331
        83 27744.98266    44.44238    44.68648     2.48037
        84 27767.17865    44.45891    44.37568     2.52793
        85 27789.39239    44.48473    44.89143     2.52873
        86 27811.62391    44.52624    44.82143     2.56252
        87 27833.87321    44.59658    42.76694     2.71677
        88 27856.14030    44.72638    45.40837     2.58788
        89 27878.42522    45.04210    45.98429     2.58399
        90 27900.72796    47.27916    49.80818     2.41167
        91 27923.04854    60.01513    59.20856     2.05040
        92 27945.38698    73.69902    72.87551     1.68316
        93 27967.74329    64.01578    62.81024     1.97256
        94 27990.11748    52.68754    52.84402     2.36742
        95 28012.50958    47.74108    47.79074     2.64235
        96 28034.91958    45.79649    45.34454     2.81014
        97 28057.34752    45.01140    45.14519     2.84728
        98 28079.79340    44.67603    44.52560     2.91143
        99 28102.25723    44.51765    43.78515     2.98518
       100 28124.73904    44.44121    44.20751     2.98060
       101 28147.23883    44.40500    43.31647     3.06611
       102 28169.75662    44.38305    45.35502     2.95127
       103 28192.29243    44.36769    44.50913     3.03070
       104 28214.84626    44.35674    44.93439     3.02511
       105 28237.41814    44.34919    45.06800     3.03920
       106 28260.00807    44.34459    44.43792     3.10574
       107 28282.61608    44.34291    43.71561     3.18097
       108 28305.24217    44.34459    43.91667     3.19027
       109 28327.88636    44.35067    44.39005     3.17994
       110 28350.54867    44.36327    45.51670     3.12438
       111 28373.22911    44.38674    44.05784     3.25178
       112 28395.92770    44.43058    43.62523     3.30818
       113 28418.64444    44.52137    44.78877     3.24571
       114 28441.37935    44.90255    44.96058     3.25657
       115 28464.13246    47.88132    47.24140     3.12132
       116 28486.90376    55.99068    54.43705     2.72762
       117 28509.69329    57.06628    56.03397     2.66800
       118 28532.50104    50.89340    50.68505     2.96928
       119 28555.32704    47.04406    47.22781     3.20740
       120 28578.17130    45.47118    46.01900     3.31248
       121 28601.03384    44.82001    44.98888     3.40909
       122 28623.91467    44.54009    45.07408     3.42280
       123 28646.81380    44.41411    44.62488     3.47699
       124 28669.73125    44.35241    43.59275     3.57886
       125 28692.66703    44.32241    44.81789     3.49938
       126 28715.62117    44.30956    44.48490     3.54337
       127 28738.59367    44.30366    44.11977     3.58993
       128 28761.58454    44.30155    44.01183     3.61531
       129 28784.59381    44.30259    43.61299     3.66438
       130 28807.62148    44.30674    43.60587     3.68031
       131 28830.66758    44.31441    44.15305     3.64916
       132 28853.73211    44.32647    43.91881     3.68248
       133 28876.81510    44.34446    43.69399     3.71471
       134 28899.91655    44.37108    44.17166     3.68708
       135 28923.03649    44.41106    43.61847     3.74598
       136 28946.17491    44.47331    43.35525     3.78044
       137 28969.33185    44.57598    44.23603     3.71622
       138 28992.50732    44.76141    44.43022     3.71066
       139 29015.70133    45.22495    45.18263     3.65913
       140 29038.91389    48.41130    48.11012     3.44598
       141 29062.14502    64.68943    62.13272     2.67558
       142 29085.39473    83.02195    78.47788     2.12412
       143 29108.66305    72.43012    67.92396     2.46095
       144 29131.94998    56.93066    55.52208     3.01911
       145 29155.25554    49.64901    48.84360     3.44176
       146 29178.57974    46.67107    47.29452     3.56496
       147 29201.92261    45.39470    46.89728     3.60606
       148 29225.28415    44.82516    45.33034     3.74238
       149 29248.66437    44.55352    45.47783     3.74233
       150 29272.06331    44.41318    44.37122     3.84853
       151 29295.48096    44.34575    44.78928     3.82587
       152 29318.91734    44.31117    43.99444     3.90905
       153 29342.37247    44.28830    44.68198     3.86330
       154 29365.84637    44.27153    44.69380     3.87728
       155 29389.33905    44.25878    43.99721     3.95453
       156 29412.85052    44.24885    44.52407     3.92405
       157 29436.38080    44.24097    44.34408     3.95698
       158 29459.92991    44.23461    45.21973     3.89765
       159 29483.49785    44.22943    44.78754     3.95329
       160 29507.08465    44.22516    45.31463     3.92565
       161 29530.69032    44.22163    44.28722     4.03598
       162 29554.31487    44.21870    44.85164     4.00463
       163 29577.95832    44.21626    43.84400     4.11695
       164 29601.62069    44.21423    45.25726     4.00836
       165 29625.30198    44.21255    43.55447     4.18610
       166 29649.00222    44.21118    45.24979     4.04973
       167 29672.72143    44.21007    44.66757     4.12341
       168 29696.45960    44.20337    44.36551     4.17264
       169 29720.21677    44.19901    44.42578     4.18818
       170 29743.99294    44.19874    44.08915     4.24158
       171 29767.78814    44.19917    43.84055     4.28722
       172 29791.60237    44.19996    44.34038     4.26028
       173 29815.43565    44.20095    44.71366     4.24596
       174 29839.28800    44.20209    44.52213     4.28560
       175 29863.15943    44.20334    44.09767     4.34844
       176 29887.04996    44.20473    44.83981     4.29770
       177 29910.95960    44.20626    44.13932     4.38746
       178 29934.88837    44.20793    44.24756     4.39820
       179 29958.83628    44.20977    44.55964     4.38868
       180 29982.80335    44.21182    44.33478     4.43230
       181 30006.78959    44.21410    43.95555     4.49203
       182 30030.79502    44.21667    43.42419     4.56869
       183 30054.81966    44.21959    43.42517     4.59023
       184 30078.86351    44.22296    44.58519     4.49181
       185 30102.92660    44.22693    43.49348     4.62604
       186 30127.00894    44.23169    43.93125     4.60115
       187 30151.11055    44.23757    43.78954     4.63723
       188 30175.23144    44.24507    43.94399     4.64198
       189 30199.37162    44.25506    44.06845     4.64978
       190 30223.53112    44.26910    44.56155     4.61895
       191 30247.70995    44.29019    42.93685     4.81511
       192 30271.90811    44.32492    44.97188     4.61762
       193 30296.12564    44.39451    44.14583     4.72483
       194 30320.36254    44.71677    45.11192     4.64403
       195 30344.61883    46.81199    46.44462     4.53061
       196 30368.89453    51.56931    49.82829     4.24148
       197 30393.18964    51.93811    50.28021     4.22175
       198 30417.50419    48.30088    47.26164     4.51098
       199 30441.83820    46.00981    46.31919     4.62277
       200 30466.19167    45.05692    45.21734     4.75592
       201 30490.56462    44.65113    45.13885     4.78475
       202 30514.95707    44.47094    44.94104     4.82647
       203 30539.36904    44.38913    44.25813     4.92194
       204 30563.80053    44.35081    45.02997     4.85822
       205 30588.25157    44.33326    44.68927     4.91605
       206 30612.72218    44.32823    44.75958     4.92907
       207 30637.21235    44.32934    44.87915     4.93660
       208 30661.72212    44.33337    44.36862     5.01429
       209 30686.25150    44.33960    44.08184     5.06791
       210 30710.80050    44.34791    44.48858     5.04236
       211 30735.36914    44.35845    45.20297     4.98309
       212 30759.95744    44.37157    44.49271     5.08335
       213 30784.56540    44.38785    44.72670     5.07729
       214 30809.19306    44.40824    44.67863     5.10325
       215 30833.84041    44.43414    44.26452     5.17162
       216 30858.50748    44.46778    44.32854     5.18468
       217 30883.19429    44.51274    45.16854     5.10833
       218 30907.90084    44.57504    44.95821     5.15228
       219 30932.62716    44.66548    45.12059     5.15358
       220 30957.37327    44.80492    44.63643     5.22934
       221 30982.13917    45.03806    45.48097     5.15151
       222 31006.92488    45.50232    47.11263     4.99144
       223 31031.73042    47.55746    48.16351     4.90015
       224 31056.55580    61.10191    60.26892     3.92970
       225 31081.40105    94.23550    91.77484     2.58946
       226 31106.26617   101.07230    99.26129     2.40206
       227 31131.15118    76.27061    72.75793     3.28748
       228 31156.05610    58.42220    57.80606     4.15048
       229 31180.98094    50.73444    51.38647     4.68270
       230 31205.92573    47.44270    48.78528     4.94621
       231 31230.89047    45.95499    46.58073     5.19411
       232 31255.87518    45.25662    47.25095     5.13336
       233 31280.87988    44.91313    45.94616     5.29168
       234 31305.90459    44.73045    46.18468     5.27608
       235 31330.94931    44.63440    45.00782     5.42527
       236 31356.01407    44.58869    46.66677     5.24248
       237 31381.09888    44.56410    45.36836     5.40206
       238 31406.20376    44.54959    45.66583     5.37555
       239 31431.32872    44.54196    44.73669     5.49523
       240 31456.47379    44.53972    45.29532     5.43461
       241 31481.63897    44.54210    44.94600     5.48327
       242 31506.82428    44.54881    44.70488     5.51857
       243 31532.02974    44.55995    45.12194     5.47252
       244 31557.25536    44.57609    45.26030     5.46011
       245 31582.50116    44.59825    44.25894     5.58745
       246 31607.76716    44.62822    44.86758     5.51488
       247 31633.05338    44.66897    45.89146     5.39452
       248 31658.35982    44.72546    45.87617     5.39859
       249 31683.68651    44.80640    45.68621     5.42298
       250 31709.03346    44.92797    46.09977     5.37599
       251 31734.40069    45.12293    45.52616     5.44525
       252 31759.78821    45.46960    45.94540     5.39702
       253 31785.19604    46.40879    47.40436     5.23235
       254 31810.62419    52.65783    53.02506     4.67909
       255 31836.07269    79.32020    77.04969     3.22117
       256 31861.54155   108.13121   105.88271     2.34490
       257 31887.03078    93.71616    89.21731     2.78414
       258 31912.54041    68.23372    66.27199     3.75002
       259 31938.07044    55.04636    54.65480     4.54983
       260 31963.62090    49.46446    49.39707     5.03756
       261 31989.19179    46.98493    47.84069     5.20550
       262 32014.78315    45.83140    48.24010     5.16693
       263 32040.39497    45.27295    47.34331     5.26995
       264 32066.02729    44.98459    46.45143     5.37694
       265 32091.68011    44.82618    45.83657     5.45552
       266 32117.35346    44.74621    45.76962     5.47054
       267 32143.04734    44.70496    45.74612     5.48094
       268 32168.76178    44.67891    45.97715     5.46147
       269 32194.49679    44.66102    46.13974     5.45077
       270 32220.25238    44.64861    45.88929     5.48953
       271 32246.02858    44.64014    45.98936     5.48694
       272 32271.82541    44.63458    44.82081     5.63989
       273 32297.64287    44.63124    45.15524     5.60815
       274 32323.48098    44.62963    45.26256     5.60502
       275 32349.33977    44.62938    44.94773     5.65461
       276 32375.21924    44.63024    45.56059     5.58878
       277 32401.11941    44.63201    45.55979     5.59909
       278 32427.04031    44.63456    45.08596     5.66820
       279 32452.98194    44.63777    44.86830     5.70594
       280 32478.94433    44.64160    44.61681     5.74835
       281 32504.92748    44.64601    44.90762     5.72124
       282 32530.93143    44.65104    44.84812     5.73892
       283 32556.95617    44.65684    45.62306     5.65131
       284 32583.00174    44.65414    44.92049     5.74968
       285 32609.06814    44.65703    44.46020     5.81927
       286 32635.15539    44.69712    45.18995     5.73518
       287 32661.26352    44.85583    46.71055     5.55806
       288 32687.39253    45.04382    46.58380     5.58282
       289 32713.54244    44.98633    46.46870     5.60634
       290 32739.71327    44.83610    45.77499     5.70120
       291 32765.90504    44.75443    45.32416     5.76796
       292 32792.11777    44.72988    44.87813     5.83552
       293 32818.35146    44.72474    45.52310     5.76301
       294 32844.60614    44.72645    45.05782     5.83290
       295 32870.88183    44.73160    44.62764     5.89970
       296 32897.17853    44.73845    45.84743     5.75313
       297 32923.49628    44.74625    45.07522     5.86236
       298 32949.83507    44.75473    45.55546     5.81121
       299 32976.19494    44.76371    45.13211     5.87656
       300 33002.57590    44.77306    45.10860     5.89055
       301 33028.97796    44.78277    44.70142     5.95531
       302 33055.40114    44.79290    45.58125     5.85132
       303 33081.84546    44.80349    45.06514     5.92949
       304 33108.31094    44.81464    45.97379     5.82327
       305 33134.79759    44.82645    44.39596     6.04160
       306 33161.30543    44.83907    44.62154     6.02235
       307 33187.83447    44.85272    45.21417     5.95454
       308 33214.38474    44.86765    44.81136     6.01925
       309 33240.95625    44.88427    45.09885     5.99192
       310 33267.54901    44.90311    45.29736     5.97656
       311 33294.16305    44.92499    44.45257     6.10112
       312 33320.79838    44.95112    44.65330     6.08451
       313 33347.45502    44.98343    45.91596     5.92759
       314 33374.13298    45.02505    45.45838     5.99769
       315 33400.83229    45.08143    45.00290     6.06885
       316 33427.55296    45.16272    45.07939     6.06894
       317 33454.29500    45.28965    44.83484     6.11244
       318 33481.05843    45.51858    45.65134     6.01331
       319 33507.84328    46.27145    45.24672     6.07737
       320 33534.64955    50.91603    50.63734     5.43964
       321 33561.47727    66.54950    64.91032     4.25078
       322 33588.32646    79.82359    79.14113     3.49240
       323 33615.19712    70.77887    66.75718     4.14741
       324 33642.08928    57.50223    55.20096     5.02437
       325 33669.00295    50.65633    50.29577     5.52405
       326 33695.93815    47.70704    47.25343     5.89013
       327 33722.89490    46.38669    46.84224     5.95252
       328 33749.87322    45.77210    46.21605     6.04423
       329 33776.87311    45.47002    45.26151     6.18324
       330 33803.89461    45.31369    45.01469     6.22902
       331 33830.93773    45.23116    45.58189     6.16352
       332 33858.00248    45.19433    45.17504     6.23143
       333 33885.08888    45.17996    45.56552     6.19059
       334 33912.19695    45.17474    45.68726     6.18686
       335 33939.32671    45.17469    45.28788     6.25453
       336 33966.47817    45.17843    45.38194     6.25486
       337 33993.65135    45.18519    44.84516     6.34333
       338 34020.84627    45.19455    44.92716     6.34546
       339 34048.06295    45.20632    45.22519     6.31736
       340 34075.30140    45.22045    44.70084     6.40538
       341 34102.56164    45.23708    44.66319     6.42470
       342 34129.84369    45.25650    45.06089     6.38173
       343 34157.14757    45.27918    44.88536     6.42033
       344 34184.47328    45.30583    45.30795     6.37370
       345 34211.82086    45.33752    45.20644     6.40089
       346 34239.19032    45.37581    46.51649     6.23260
       347 34266.58167    45.42304    45.49600     6.38393
       348 34293.99494    45.48283    46.02846     6.32063
       349 34321.43013    45.56093    45.53935     6.39830
       350 34348.88728    45.66691    45.17069     6.45955
       351 34376.36639    45.81526    45.04105     6.48643
       352 34403.86748    46.03706    45.25809     6.46294
       353 34431.39057    46.40887    45.83348     6.38880
       354 34458.93569    47.17212    46.22641     6.34102
       355 34486.50284    50.60621    50.16194     5.84925
       356 34514.09204    69.44645    65.65153     4.47342
       357 34541.70331   113.74536   112.24741     2.61884
       358 34569.33667   132.54358   130.83164     2.24889
       359 34596.99214   102.77415    95.35031     3.08854
       360 34624.66974    72.74635    68.80803     4.28383
       361 34652.36947    57.99482    56.00372     5.26811
       362 34680.09137    51.53325    51.43077     5.74189
       363 34707.83544    48.56119    49.73462     5.94332
       364 34735.60171    47.13287    47.65250     6.20893
       365 34763.39019    46.42053    46.90436     6.31404
       366 34791.20090    46.04292    46.00888     6.44316
       367 34819.03386    45.83044    46.90431     6.32632
       368 34846.88909    45.71791    45.74064     6.49362
       369 34874.76660    45.65978    46.05560     6.45556
       370 34902.66642    45.62474    45.85572     6.49008
       371 34930.58855    45.60151    45.27020     6.58049
       372 34958.53302    45.58619    45.18238     6.59973
       373 34986.49985    45.57663    45.62456     6.54208
       374 35014.48905    45.57141    45.21985     6.60689
       375 35042.50064    45.56958    45.82349     6.52588
       376 35070.53464    45.57051    45.47841     6.58129
       377 35098.59107    45.57373    45.65274     6.56184
       378 35126.66994    45.57895    45.35470     6.61044
       379 35154.77127    45.58599    45.48882     6.59617
       380 35182.89509    45.59476    44.97865     6.67596
       381 35211.04141    45.60529    45.30010     6.63321
       382 35239.21024    45.61772    45.03833     6.67603
       383 35267.40161    45.63229    45.52429     6.60857
       384 35295.61553    45.64947    45.08926     6.67571
       385 35323.85202    45.66997    45.41507     6.63070
       386 35352.11110    45.69495    45.17647     6.66809
       387 35380.39279    45.72336    45.06772     6.68603
       388 35408.69711    45.74754    45.44371     6.63202
       389 35437.02407    45.79759    45.47481     6.62828
       390 35465.37368    45.87869    45.03832     6.69279
       391 35493.74598    46.01126    45.59713     6.61056
       392 35522.14098    46.29026    45.54873     6.61690
       393 35550.55869    47.61479    47.07311     6.40153
       394 35578.99914    54.31596    52.51473     5.73683
       395 35607.46234    68.28553    66.62523     4.52047
       396 35635.94831    72.55126    72.34869     4.16137
       397 35664.45707    62.80237    59.57181     5.05185
       398 35692.98863    53.86162    51.97920     5.78717
       399 35721.54302    49.52242    48.29945     6.22504
       400 35750.12026    47.60751    47.36294     6.34482
       401 35778.72035    46.72173    46.94615     6.39763
       402 35807.34333    46.29580    45.73695     6.56303
       403 35835.98921    46.08452    46.29693     6.47987
       404 35864.65800    45.97485    45.43697     6.59863
       405 35893.34972    45.91639    45.72742     6.55285
       406 35922.06440    45.88945    46.07170     6.50004
       407 35950.80205    45.87924    45.74820     6.54213
       408 35979.56270    45.87607    45.50458     6.57325
       409 36008.34635    45.87656    45.46470     6.57511
       410 36037.15302    45.87951    46.13762     6.47537
       411 36065.98275    45.88424    45.44463     6.57026
       412 36094.83553    45.89029    45.97682     6.49047
       413 36123.71140    45.89734    46.58929     6.40157
       414 36152.61037    45.90519    45.71847     6.52002
       415 36181.53246    45.91366    46.07378     6.46648
       416 36210.47768    45.92263    45.70587     6.51547
       417 36239.44607    45.93202    45.72896     6.50938
       418 36268.43762    45.94174    46.08295     6.45684
       419 36297.45237    45.95176    45.73941     6.50306
       420 36326.49034    45.96201    46.66844     6.37161
       421 36355.55153    45.97247    45.93116     6.47210
       422 36384.63597    45.98311    45.27608     6.56415
       423 36413.74368    45.99391    45.83437     6.48280
       424 36442.87467    46.00484    45.58079     6.51759
       425 36472.02897    46.01589    45.68371     6.50167
       426 36501.20660    46.02279    45.93191     6.46525
       427 36530.40756    46.03072    46.35315     6.40506
       428 36559.63189    46.04125    45.98467     6.45468
       429 36588.87959    46.05265    45.43298     6.53100
       430 36618.15070    46.06441    45.06579     6.58173
       431 36647.44522    46.07634    46.37447     6.39313
       432 36676.76317    46.08835    46.22686     6.41015
       433 36706.10458    46.10040    46.01547     6.43565
       434 36735.46947    46.11249    45.95655     6.43938
       435 36764.85784    46.12461    46.09449     6.41502
       436 36794.26973    46.13675    46.23026     6.39050
       437 36823.70514    46.14890    46.37077     6.36485
       438 36853.16411    46.16108    46.01413     6.40722
       439 36882.64664    46.17328    46.09928     6.38780
       440 36912.15276    46.18549    46.57335     6.31467
       441 36941.68248    46.19773    46.39589     6.33008
       442 36971.23583    46.20998    46.49150     6.30777
       443 37000.81281    46.22225    46.85432     6.24918
       444 37030.41346    46.23454    45.89124     6.36988
       445 37060.03779    46.24685    46.46004     6.28111
       446 37089.68583    46.26131    46.27180     6.29542
       447 37119.35757    46.27549    46.55677     6.24535
       448 37149.05306    46.28874    45.94937     6.31588
       449 37178.77230    46.30172    45.90459     6.30970
       450 37208.51532    46.31461    46.13139     6.26614
       451 37238.28213    46.32751    46.36759     6.22153
       452 37268.07276    46.34044    46.97076     6.12895
       453 37297.88722    46.35342    46.65512     6.15749
       454 37327.72553    46.36648    46.78219     6.12774
       455 37357.58771    46.37963    46.07169     6.20889
       456 37387.47378    46.39288    46.21361     6.17644
       457 37417.38376    46.40625    46.06164     6.18332
       458 37447.31766    46.41975    46.51449     6.10973
       459 37477.27552    46.43341    45.59763     6.21891
       460 37507.25734    46.44727    46.31658     6.10892
       461 37537.26314    46.46135    46.71955     6.04293
       462 37567.29295    46.47571    46.56263     6.05006
       463 37597.34679    46.49042    47.79846     5.88088
       464 37627.42467    46.50556    47.04190     5.96265
       465 37657.52661    46.52126    46.41290     6.03066
       466 37687.65263    46.53767    46.53863     6.00182
       467 37717.80275    46.55504    47.34835     5.88706
       468 37747.97699    46.57370    47.51977     5.85396
       469 37778.17537    46.59416    46.53036     5.96654
       470 37808.39791    46.61722    47.47711     5.83610
       471 37838.64463    46.64417    48.07516     5.75237
       472 37868.91555    46.67723    47.26444     5.83994
       473 37899.21068    46.72043    47.75541     5.76915
       474 37929.53005    46.78192    47.61335     5.77584
       475 37959.87367    46.88567    48.14975     5.70135
       476 37990.24157    47.21526    47.48172     5.77153
       477 38020.63376    48.95267    49.23648     5.55640
       478 38051.05027    54.29139    55.00068     4.96583
       479 38081.49111    59.66190    61.28424     4.44943
       480 38111.95630    57.84115    58.88067     4.62368
       481 38142.44587    52.83470    52.93958     5.13452
       482 38172.95983    49.60715    50.46039     5.37850
       483 38203.49819    48.12648    48.68441     5.56626
       484 38234.06099    47.45865    48.03628     5.63297
       485 38264.64824    47.14498    48.27321     5.59713
       486 38295.25996    46.99421    47.37931     5.69450
       487 38325.89617    46.92076    47.44343     5.67867
       488 38356.55688    46.88476    47.13558     5.70763
       489 38387.24213    46.86973    47.07233     5.70718
       490 38417.95192    46.86739    47.52710     5.64453
       491 38448.68629    46.87682    47.12491     5.68455
       492 38479.44523    46.89511    47.42114     5.64087
       493 38510.22879    46.90825    47.65145     5.60542
       494 38541.03697    46.92044    47.98433     5.55832
       495 38571.86980    46.93270    47.99596     5.54868
       496 38602.72730    46.94537    48.16255     5.52114
       497 38633.60948    46.95854    46.83514     5.66894
       498 38664.51637    46.97223    47.67726     5.56020
       499 38695.44798    46.98645    46.76229     5.66010
       500 38726.40434    47.00120    47.70723     5.53915
       501 38757.38546    47.01651    46.79164     5.63838
       502 38788.39137    47.03241    47.19579     5.58084
       503 38819.42208    47.04896    47.35967     5.55209
       504 38850.47762    47.06622    47.18706     5.56270
       505 38881.55800    47.08431    47.51222     5.51473
       506 38912.66325    47.10336    47.52747     5.50277
       507 38943.79338    47.12354    47.89401     5.45026
       508 38974.94842    47.14509    47.71204     5.46028
       509 39006.12837    47.16833    47.28619     5.49825
       510 39037.33328    47.19367    47.94099     5.41174
       511 39068.56314    47.22095    47.85642     5.40948
       512 39099.81799    47.25008    47.72060     5.41266
       513 39131.09785    47.28532    47.61853     5.41163
       514 39162.40273    47.32730    47.59321     5.40150
       515 39193.73265    47.37798    48.01560     5.34071
       516 39225.08764    47.44082    47.90394     5.33949
       517 39256.46771    47.52154    47.47764     5.37326
       518 39287.87288    47.62980    46.66355     5.45216
       519 39319.30318    47.78282    48.82061     5.19666
       520 39350.75862    48.01401    48.50739     5.21512
       521 39382.23923    48.40863    48.31502     5.22032
       522 39413.74502    49.49033    49.69600     5.05974
       523 39445.27602    54.96550    54.02544     4.63966
       524 39476.83224    75.33961    74.37994     3.35914
       525 39508.41370   106.87133   109.48622     2.27450
       526 39540.02043   111.31381   111.27257     2.23041
       527 39571.65245    87.69148    82.92824     2.98237
       528 39603.30977    67.04793    64.53405     3.81881
       529 39634.99242    56.74174    56.15615     4.37258
       530 39666.70041    52.09111    51.85701     4.71748
       531 39698.43377    49.90090    50.38493     4.83684
       532 39730.19252    48.82300    49.65061     4.88929
       533 39761.97667    48.27015    48.90145     4.94448
       534 39793.78626    47.96997    47.92518     5.02477
       535 39825.62128    47.80202    48.11139     4.98465
       536 39857.48178    47.71461    49.07672     4.86605
       537 39889.36777    47.66954    47.87054     4.96730
       538 39921.27926    47.64310    47.70836     4.96246
       539 39953.21628    47.62645    47.68733     4.94265
       540 39985.17886    47.62009    48.49093     4.83888
       541 40017.16700    47.62270    47.24029     4.94433
       542 40049.18073    47.62445    47.94557     4.84910
       543 40081.22008    47.62741    47.30640     4.89165
       544 40113.28505    47.63194    47.96484     4.80174
       545 40145.37568    47.63794    47.70546     4.80488
       546 40177.49198    47.64527    47.85182     4.76724
       547 40209.63398    47.65374    47.19380     4.81041
       548 40241.80168    47.66324    47.56521     4.74972
       549 40273.99513    47.67364    48.38058     4.64694
       550 40306.21432    47.68485    48.09988     4.65120
       551 40338.45929    47.69684    48.31924     4.60735
       552 40370.73006    47.70955    47.53339     4.66048
       553 40403.02664    47.72300    48.10408     4.58254
       554 40435.34907    47.73718    47.56657     4.61155
       555 40467.69735    47.75215    48.09396     4.53864
       556 40500.07150    47.76798    48.11814     4.51421
       557 40532.47156    47.78475    47.72421     4.52933
       558 40564.89754    47.80243    48.09170     4.47291
       559 40597.34946    47.80891    47.64375     4.49310
       560 40629.82734    47.82409    46.59861     4.57164
       561 40662.33120    47.84545    47.53725     4.45971
       562 40694.86106    47.87076    47.49306     4.44229
       563 40727.41695    47.89986    47.33280     4.43583
       564 40759.99888    47.93350    47.96401     4.35636
       565 40792.60688    47.97314    48.34005     4.30168
       566 40825.24097    48.02123    48.18161     4.29513
       567 40857.90116    48.08168    48.12185     4.27989
       568 40890.58748    48.16113    48.31830     4.24216
       569 40923.29995    48.27127    48.09327     4.24175
       570 40956.03859    48.43462    48.68195     4.17058
       571 40988.80342    48.70870    48.58181     4.15941
       572 41021.59447    49.44399    49.12078     4.09433
       573 41054.41174    53.05768    52.26159     3.83008
       574 41087.25527    66.36621    66.05251     3.01609
       575 41120.12508    87.61729    87.31092     2.27096
       576 41153.02118    92.05900    88.87426     2.22051
       577 41185.94359    76.82327    73.85164     2.65967
       578 41218.89235    62.35630    60.29506     3.24248
       579 41251.86746    54.86136    53.79716     3.61732
       580 41284.86896    51.46420    51.66454     3.74940
       581 41317.89685    49.87107    50.26008     3.83678
       582 41350.95117    49.09019    48.85382     3.92970
       583 41384.03193    48.69205    50.14510     3.81184
       584 41417.13915    48.47827    48.49421     3.92484
       585 41450.27287    48.36019    49.21323     3.85145
       586 41483.43308    48.29979    49.09992     3.84478
       587 41516.61983    48.27035    49.16509     3.82466
       588 41549.83313    48.25482    48.79144     3.83936
       589 41583.07299    48.24650    48.40263     3.85605
       590 41616.33945    48.24291    48.68143     3.82044
       591 41649.63252    48.24272    48.38310     3.83096
       592 41682.95223    48.24507    48.09183     3.84162
       593 41716.29859    48.24944    48.28027     3.81470
       594 41749.67163    48.25535    48.83316     3.76026
       595 41783.07137    48.26236    49.10927     3.72846
       596 41816.49782    48.27029    47.64409     3.83267
       597 41849.95102    48.27897    48.76715     3.73470
       598 41883.43098    48.28828    49.36667     3.68024
       599 41916.93773    48.29810    48.75478     3.71767
       600 41950.47128    48.30835    48.00737     3.76707
       601 41984.03165    48.31896    48.62607     3.71115
       602 42017.61888    48.32988    48.63783     3.70259
       603 42051.23298    48.34106    47.77261     3.76212
       604 42084.87396    48.35247    47.40880     3.78360
       605 42118.54186    48.36407    48.64523     3.68034
       606 42152.23669    48.37584    48.82267     3.65993
       607 42185.95848    48.38776    47.77891     3.73266
       608 42219.70725    48.39981    48.01889     3.70672
       609 42253.48302    48.41198    47.75507     3.71972
       610 42287.28580    48.41569    48.23179     3.67536
       611 42321.11563    48.42421    48.40308     3.65451
       612 42354.97252    48.43570    47.97881     3.67860
       613 42388.85650    48.44828    47.99480     3.66876
       614 42422.76759    48.46132    47.33316     3.71090
       615 42456.70580    48.47457    47.55295     3.68419
       616 42490.67117    48.48794    47.79702     3.65542
       617 42524.66370    48.50140    48.50767     3.59159
       618 42558.68343    48.51495    48.19794     3.60390
       619 42592.73038    48.52860    47.14127     3.67322
       620 42626.80456    48.54239    48.65560     3.54740
       621 42660.90601    48.55638    46.72048     3.68196
       622 42695.03473    48.57068    47.30848     3.62362
       623 42729.19076    48.58547    48.59578     3.51506
       624 42763.37411    48.60107    47.28177     3.59954
       625 42797.58481    48.61827    47.38289     3.57840
       626 42831.82288    48.64075    46.40451     3.63986
       627 42866.08834    48.69425    48.13755     3.49513
       628 42900.38121    48.87295    47.97145     3.49330
       629 42934.70151    49.24359    48.42963     3.44628
       630 42969.04928    49.50864    48.13589     3.45308
       631 43003.42452    49.36316    48.66941     3.40101
       632 43037.82725    49.07471    47.45566     3.47330
       633 43072.25752    48.89182    47.82298     3.43195
       634 43106.71532    48.81198    48.26779     3.38573
       635 43141.20069    48.78226    47.96724     3.39222
       636 43175.71366    48.77465    47.12106     3.43813
       637 43210.25423    48.77724    47.69318     3.38207
       638 43244.82243    48.78470    46.75057     3.43519
       639 43279.41829    48.79456    47.44388     3.37017
       640 43314.04182    48.80577    46.94284     3.39122
       641 43348.69306    48.81777    47.88148     3.31016
       642 43383.37201    48.83015    46.99621     3.35772
       643 43418.07871    48.84270    47.85292     3.28311
       644 43452.81317    48.85536    47.58514     3.28704
       645 43487.57542    48.86809    46.88425     3.32146
       646 43522.36548    48.88086    47.62786     3.25514
       647 43557.18337    48.89367    48.31933     3.19434
       648 43592.02912    48.90650    47.79321     3.21514
       649 43626.90274    48.91935    47.42563     3.22560
       650 43661.80427    48.93221    47.69805     3.19282
       651 43696.73371    48.94530    47.54393     3.18878
       652 43731.69110    48.95846    47.42768     3.18220
       653 43766.67645    48.97161    47.35616     3.17265
       654 43801.68979    48.98464    47.70413     3.13532
       655 43836.73114    48.99761    47.48978     3.13531
       656 43871.80053    49.01057    48.41889     3.06135
       657 43906.89797    49.02352    48.42638     3.04719
       658 43942.02349    49.03647    48.00347     3.06032
       659 43977.17710    49.04942    47.86906     3.05527
       660 44012.35885    49.06237    47.16161     3.08738
       661 44047.56873    49.07533    46.58406     3.11187
       662 44082.80679    49.08829    47.48254     3.03958
       663 44118.07303    49.10125    48.19262     2.98166
       664 44153.36749    49.11422    47.13938     3.03494
       665 44188.69019    49.12719    48.08403     2.96228
       666 44224.04114    49.14003    47.65467     2.97582
       667 44259.42037    49.15298    47.07985     2.99886
       668 44294.82791    49.16599    47.97282     2.92997
       669 44330.26377    49.17904    47.33055     2.95646
       670 44365.72798    49.19213    47.35058     2.94191
       671 44401.22056    49.20526    48.25099     2.87395
       672 44436.74154    49.21844    46.74741     2.95288
       673 44472.29093    49.23168    48.12619     2.85519
       674 44507.86877    49.24501    47.00921     2.90968
       675 44543.47506    49.25844    47.69490     2.85475
       676 44579.10984    49.27201    48.35587     2.80290
       677 44614.77313    49.28576    47.56069     2.83685
       678 44650.46495    49.29977    48.40846     2.77463
       679 44686.18532    49.31414    49.02860     2.72734
       680 44721.93427    49.32902    47.82479     2.78374
       681 44757.71182    49.34466    48.74838     2.71923
       682 44793.51798    49.36146    48.22796     2.73696
       683 44829.35280    49.38014    48.83157     2.69194
       684 44865.21628    49.40209    48.21266     2.71547
       685 44901.10845    49.43156    48.40372     2.69407
       686 44937.02934    49.49640    48.65966     2.66961
       687 44972.97896    49.74854    49.63764     2.60725
       688 45008.95735    50.51613    49.22047     2.61985
       689 45044.96451    51.63488    51.63419     2.48866
       690 45081.00049    51.91611    52.25363     2.45089
       691 45117.06529    51.16172    50.79354     2.51319
       692 45153.15894    50.35429    49.59119     2.56619
       693 45189.28146    49.90660    50.24102     2.52559
       694 45225.43289    49.70626    49.39222     2.56190
       695 45261.61324    49.61948    48.94208     2.57877
       696 45297.82253    49.58333    48.83029     2.57843
       697 45334.06079    49.57072    49.50510     2.53758
       698 45370.32803    49.56943    49.50385     2.53241
       699 45406.62430    49.57396    50.41287     2.48204
       700 45442.94960    49.58189    49.65910     2.51538
       701 45479.30396    49.59166    49.45527     2.52185
       702 45515.68740    49.60231    49.10537     2.53635
       703 45552.09995    49.61341    50.12028     2.48204
       704 45588.54163    49.62480    49.07679     2.53225
       705 45625.01246    49.63639    49.48089     2.50944
       706 45661.51247    49.64813    49.99881     2.48172
       707 45698.04168    49.65998    48.86534     2.53788
       708 45734.60011    49.67192    48.95090     2.53235
       709 45771.18779    49.68392    48.45054     2.55766
       710 45807.80475    49.69596    49.70588     2.49244
       711 45844.45099    49.70805    48.77944     2.53926
       712 45881.12655    49.72016    49.04629     2.52501
       713 45917.83145    49.73229    49.78133     2.48731
       714 45954.56572    49.74443    49.24921     2.51372
       715 45991.32937    49.77612    48.87217     2.53256
       716 46028.12243    49.81997    49.39469     2.50509
       717 46064.94493    49.85463    47.70595     2.59287
       718 46101.79689    49.87860    49.33620     2.50610
       719 46138.67832    49.89886    49.11221     2.51616
       720 46175.58927    49.91780    50.28710     2.45572
       721 46212.52974    49.93642    49.85025     2.47520
       722 46249.49976    49.95521    48.93385     2.51908
       723 46286.49936    49.97443    49.18531     2.50331
       724 46323.52856    49.99422    50.43041     2.43824
       725 46360.58738    50.01472    49.27768     2.49147
       726 46397.67585    50.03581    48.25293     2.54000
       727 46434.79399    50.05769    49.35063     2.47877
       728 46471.94183    50.08095    49.51946     2.46516
       729 46509.11938    50.10557    49.02421     2.48442
       730 46546.32668    50.13168    49.47296     2.45590
       731 46583.56374    50.15951    49.73374     2.43668
       732 46620.83059    50.18934    49.91239     2.42128
       733 46658.12726    50.22153    49.75872     2.42172
       734 46695.45376    50.25652    48.30339     2.48712
       735 46732.81012    50.29485    49.38268     2.42511
       736 46770.19637    50.33722    49.62742     2.40531
       737 46807.61253    50.38451    48.98666     2.42864
       738 46845.05862    50.43786    49.50016     2.39525
       739 46882.53466    50.49873    49.61357     2.38147
       740 46920.04069    50.56910    49.77255     2.36547
       741 46957.57672    50.65159    49.45741     2.37200
       742 46995.14278    50.74985    49.17619     2.37688
       743 47032.73890    50.86895    50.33735     2.31348
       744 47070.36509    51.01621    50.84504     2.28182
       745 47108.02138    51.20247    51.27130     2.25431
       746 47145.70780    51.44429    49.07044     2.34643
       747 47183.42436    51.76805    50.97774     2.24995
       748 47221.17110    52.21781    52.11353     2.19234
       749 47258.94804    52.87188    51.42314     2.21303
       750 47296.75520    53.89598    52.93404     2.14132
       751 47334.59260    55.95095    54.83024     2.05897
       752 47372.46028    63.21429    60.38053     1.86214
       753 47410.35825    92.95228    90.29497     1.24013
       754 47448.28653   171.11806   171.95754     0.64851
       755 47486.24516   267.91348   276.13818     0.40216
       756 47524.23416   281.28436   280.54177     0.39420
       757 47562.25355   208.15370   203.39429     0.54144
       758 47600.30335   133.03805   129.59717     0.84618
       759 47638.38359    90.30154    90.88789     1.20149
       760 47676.49430    70.33927    71.92438     1.51185
       761 47714.63549    61.03786    63.28048     1.71111
       762 47752.80720    56.48831    58.10447     1.85568
       763 47791.00945    54.14430    56.48708     1.90078
       764 47829.24225    52.86104    56.76160     1.88368
       765 47867.50565    52.12504    54.03949     1.97037
       766 47905.79965    51.70180    53.50742     1.98181
       767 47944.12429    51.44863    52.19991     2.02325
       768 47982.47959    51.27933    51.44760     2.04469
       769 48020.86558    51.15524    52.68846     1.98878
       770 48059.28227    51.06060    52.30490     1.99576
       771 48097.72969    50.98715    53.11499     1.95803
       772 48136.20788    50.92951    51.92847     1.99550
       773 48174.71684    50.88395    52.68525     1.95984
       774 48213.25662    50.84780    51.67466     1.99118
       775 48251.82722    50.81907    52.71159     1.94529
       776 48290.42868    50.79630    54.43827     1.87716
       777 48329.06103    50.77835    55.14483     1.84679
       778 48367.72428    50.76435    52.59602     1.92962
       779 48406.41846    50.75363    53.46306     1.89168
       780 48445.14359    50.74563    52.98078     1.90206
       781 48483.89971    50.73993    53.09872     1.89078
       782 48522.68683    50.73618    51.91592     1.92634
       783 48561.50497    50.73408    52.21869     1.90737
       784 48600.35418    50.73340    52.37172     1.89369
       785 48639.23446    50.73395    52.72663     1.87260
       786 48678.14585    50.73556    51.69756     1.90112
       787 48717.08837    50.75685    52.19724     1.87407
       788 48756.06204    50.78939    51.12321     1.90428
       789 48795.06689    50.80576    52.20818     1.85567
       790 48834.10294    50.81762    51.54079     1.87054
       791 48873.17022    50.82816    51.78308     1.85270
       792 48912.26876    50.83857    49.73199     1.91972
       793 48951.39857    50.84933    51.90002     1.83063
       794 48990.55969    50.83086    51.38905     1.83995
       795 49029.75214    50.81245    50.62524     1.85882
       796 49068.97594    50.81708    50.71532     1.84678
       797 49108.23112    50.82940    51.01715     1.82730
       798 49147.51771    50.84512    51.40467     1.80515
       799 49186.83572    50.86267    52.10688     1.77266
       800 49226.18519    50.88146    51.84523     1.77349
       801 49265.56614    50.90131    51.89604     1.76370
       802 49304.97859    50.92218    50.94669     1.78844
       803 49344.42257    50.94426    51.27680     1.76891
       804 49383.89811    50.96763    52.13978     1.73180
       805 49423.40523    50.99249    50.92862     1.76503
       806 49462.94396    51.01912    51.29178     1.74469
       807 49502.51431    51.04784    50.68025     1.75784
       808 49542.11632    51.07904    51.00918     1.73871
       809 49581.75001    51.11322    51.54394     1.71298
       810 49621.41541    51.15102    51.94618     1.69211
       811 49661.11255    51.19322    51.43694     1.70121
       812 49700.84144    51.24086    51.02549     1.70725
       813 49740.60211    51.29530    52.63898     1.64750
       814 49780.39459    51.35837    53.01509     1.62848
       815 49820.21891    51.43255    51.47341     1.66974
       816 49860.07508    51.52120    51.77442     1.65262
       817 49899.96314    51.62910    52.45178     1.62403
       818 49939.88311    51.76320    52.97937     1.60075
       819 49979.83502    51.93388    53.04659     1.59172
       820 50019.81889    52.15720    53.27714     1.57797
       821 50059.83474    52.45904    54.83135     1.52670
       822 50099.88261    52.88328    53.32266     1.56332
       823 50139.96252    53.51173    54.55408     1.52177
       824 50180.07449    54.56841    54.89391     1.50630
       825 50220.21855    57.27956    56.69797     1.45272
       826 50260.39472    68.08816    67.90318     1.20846
       827 50300.60304   104.35010   103.45796     0.79030
       828 50340.84352   175.13184   176.02998     0.46288
       829 50381.11619   232.92529   236.66782     0.34314
       830 50421.42109   216.46526   215.37130     0.37588
       831 50461.75822   155.34990   153.65445     0.52525
       832 50502.12763   104.40930   106.88148     0.75291
       833 50542.52933    77.00571    80.03866     1.00262
       834 50582.96336    64.27251    66.69508     1.20003
       835 50623.42973    58.30769    62.30501     1.28133
       836 50663.92847    55.36410    57.77293     1.37849
       837 50704.45961    53.82031    56.38474     1.40914
       838 50745.02318    52.96621    56.10734     1.41295
       839 50785.61920    52.48784    54.05366     1.46348
       840 50826.24770    52.21317    55.81147     1.41448
       841 50866.90869    52.03862    53.11548     1.48338
       842 50907.60222    51.91480    53.02232     1.48326
       843 50948.32830    51.82188    53.29121     1.47326
       844 50989.08696    51.75058    53.03027     1.47820
       845 51029.87823    51.69512    53.59065     1.46068
       846 51070.70214    51.65161    53.60647     1.45842
       847 51111.55870    51.61729    52.39660     1.49049
       848 51152.44795    51.59017    54.10987     1.44200
       849 51193.36990    51.56879    52.57127     1.48314
       850 51234.32460    51.55201    50.58498     1.54054
       851 51275.31206    51.53900    53.64583     1.45211
       852 51316.33231    51.52907    53.16860     1.46486
       853 51357.38537    51.52171    52.78567     1.47542
       854 51398.47128    51.51650    52.34375     1.48803
       855 51439.59006    51.51310    51.70262     1.50683
       856 51480.74173    51.51123    52.15952     1.49415
       857 51521.92633    51.51068    51.90588     1.50210
       858 51563.14387    51.51125    51.84116     1.50474
       859 51604.39438    51.51280    52.15852     1.49641
       860 51645.67790    51.51519    50.72022     1.53972
       861 51686.99444    51.51832    52.95672     1.47553
       862 51728.34404    51.52209    51.77701     1.50996
       863 51769.72671    51.52643    53.08093     1.47360
       864 51811.14249    51.53127    51.42201     1.52181
       865 51852.59141    51.53655    51.16054     1.53014
       866 51894.07348    51.54223    52.83232     1.48213
       867 51935.58874    51.54825    52.37702     1.49525
       868 51977.13721    51.55459    50.79240     1.54194
       869 52018.71892    51.55895    51.23289     1.52849
       870 52060.33389    51.53217    50.96655     1.53604
       871 52101.98216    51.52555    53.58404     1.46034
       872 52143.66375    51.52941    51.34170     1.52316
       873 52185.37868    51.53695    52.94463     1.47585
       874 52227.12698    51.54598    51.99804     1.50122
       875 52268.90868    51.55562    51.94425     1.50100
       876 52310.72381    51.56551    50.57788     1.53941
       877 52352.57239    51.57551    51.64952     1.50506
       878 52394.45445    51.58554    51.60232     1.50368
       879 52436.37001    51.59558    51.85092     1.49339
       880 52478.31911    51.60561    50.72733     1.52297
       881 52520.30176    51.61563    50.18033     1.53570
       882 52562.31800    51.62563    50.90278     1.50979
       883 52604.36786    51.63562    51.14288     1.49832
       884 52646.45135    51.64559    50.28030     1.51932
       885 52688.56851    51.65554    49.86627     1.52696
       886 52730.71937    51.66548    52.19716     1.45382
       887 52772.90394    51.67541    51.33709     1.47297
       888 52815.12227    51.68532    50.94087     1.47901
       889 52857.37436    51.69522    52.22490     1.43725
       890 52899.66026    51.70510    49.93831     1.49729
       891 52941.97999    51.71496    51.03373     1.45943
       892 52984.33357    51.72481    51.34484     1.44483
       893 53026.72104    51.73465    51.55182     1.43325
       894 53069.14242    51.74446    51.66665     1.42427
       895 53111.59773    51.75427    51.34683     1.42727
       896 53154.08701    51.76406    47.65457     1.53151
       897 53196.61028    51.77383    50.78414     1.43116
       898 53239.16757    51.78359    49.94766     1.44903
       899 53281.75890    51.79333    50.18710     1.43603
       900 53324.38431    51.80306    51.16785     1.40252
       901 53367.04382    51.81278    51.08027     1.39890
       902 53409.73745    51.82247    50.82408     1.39988
       903 53452.46524    51.83216    51.66758     1.37102
       904 53495.22721    51.84182    50.90294     1.38551
       905 53538.02340    51.85148    51.07221     1.37480
       906 53580.85381    51.86111    50.71417     1.37834
       907 53623.71850    51.87074    52.20700     1.33293
       908 53666.61747    51.88034    51.21633     1.35259
       909 53709.55077    51.88993    50.30370     1.37090
       910 53752.51841    51.89951    51.14516     1.34221
       911 53795.52042    51.90907    51.84770     1.31799
       912 53838.55684    51.91862    50.27769     1.35293
       913 53881.62768    51.92815    51.61706     1.31178
       914 53924.73299    51.93766    50.93562     1.32322
       915 53967.87277    51.94716    50.15764     1.33755
       916 54011.04707    51.95665    51.04862     1.30815
       917 54054.25591    51.96612    51.10405     1.30072
       918 54097.49931    51.97557    51.53601     1.28390
       919 54140.77731    51.98501    51.74167     1.27297
       920 54184.08993    51.99443    51.53409     1.27233
       921 54227.43721    52.00384    52.59217     1.24117
       922 54270.81916    52.01324    51.51612     1.26153
       923 54314.23581    52.02261    51.80105     1.24919
       924 54357.68720    52.03198    51.97484     1.23973
       925 54401.17335    52.04133    51.05435     1.25684
       926 54444.69429    52.05066    51.85877     1.23228
       927 54488.25004    52.05997    51.56600     1.23427
       928 54531.84064    52.06928    51.12547     1.23995
       929 54575.46612    52.07856    51.40696     1.22830
       930 54619.12649    52.08783    50.62267     1.24246
       931 54662.82179    52.09709    50.85121     1.23209
       932 54706.55205    52.10633    50.69476     1.23115
       933 54750.31729    52.11555    51.77366     1.20089
       934 54794.11754    52.12476    51.32571     1.20676
       935 54837.95284    52.13396    52.99706     1.16424
       936 54881.82320    52.14314    53.38010     1.15146
       937 54925.72866    52.15230    53.04836     1.15418
       938 54969.66924    52.16145    52.58392     1.15983
       939 55013.64498    52.17059    52.38014     1.15976
       940 55057.65589    52.17970    53.51406     1.13068
       941 55101.70202    52.18881    51.32208     1.17428
       942 55145.78338    52.19789    52.82744     1.13626
       943 55189.90001    52.20697    53.90998     1.10898
       944 55234.05193    52.21602    52.83480     1.12699
       945 55278.23917    52.22506    51.24468     1.15727
       946 55322.46176    52.23409    51.77437     1.14080
       947 55366.71973    52.24310    50.55677     1.16354
       948 55411.01310    52.25210    54.46615     1.07566
       949 55455.34191    52.26108    53.50499     1.09055
       950 55499.70619    52.27004    52.77585     1.10114
       951 55544.10595    52.27899    52.52349     1.10196
       952 55588.54124    52.28793    51.31402     1.12338
       953 55633.01207    52.29684    52.06213     1.10276
       954 55677.51848    52.30575    51.64388     1.10720
       955 55722.06049    52.31464    52.67915     1.08104
       956 55766.63814    52.32351    52.80556     1.07408
       957 55811.25145    52.33237    53.28651     1.06006
       958 55855.90045    52.34121    53.20179     1.05744
       959 55900.58518    52.35004    51.70512     1.08363
       960 55945.30564    52.35885    52.14776     1.07009
       961 55990.06189    52.37797    50.27064     1.10560
       962 56034.85394    52.40457    53.54235     1.03391
       963 56079.68182    52.42278    50.47195     1.09248
       964 56124.54557    52.43640    53.83861     1.02015
       965 56169.44520    52.44839    53.66534     1.01946
       966 56214.38076    52.45978    51.02987     1.06795
       967 56259.35226    52.47100    53.56629     1.01347
       968 56304.35974    52.48223    53.10566     1.01836
       969 56349.40323    52.49358    51.39528     1.04828
       970 56394.48276    52.50508    54.75527     0.98027
       971 56439.59834    52.51678    53.33112     1.00274
       972 56484.75002    52.52871    52.09936     1.02272
       973 56529.93782    52.54089    51.66504     1.02762
       974 56575.16177    52.55337    53.07674     0.99676
       975 56620.42190    52.56617    52.06753     1.01253
       976 56665.71824    52.57934    52.87599     0.99361
       977 56711.05081    52.59293    53.89764     0.97144
       978 56756.41965    52.60698    52.41292     0.99559
       979 56801.82479    52.62156    53.64516     0.96949
       980 56847.26625    52.63676    52.14221     0.99418
       981 56892.74406    52.65265    54.10832     0.95501
       982 56938.25826    52.66935    53.67418     0.95976
       983 56983.80886    52.68697    53.27028     0.96415
       984 57029.39591    52.70568    53.05307     0.96531
       985 57075.01943    52.72565    51.98616     0.98240
       986 57120.67944    52.74710    54.16579     0.94038
       987 57166.37599    52.77030    53.25938     0.95397
       988 57212.10909    52.79560    53.56420     0.94628
       989 57257.87877    52.82341    52.39906     0.96516
       990 57303.68508    52.85425    54.03359     0.93402
       991 57349.52803    52.88881    53.67934     0.93841
       992 57395.40765    52.92796    53.51187     0.93975
       993 57441.32397    52.97285    51.89880     0.96752
       994 57487.27703    53.02499    52.88231     0.94832
       995 57533.26685    53.08645    54.23559     0.92368
       996 57579.29347    53.16008    52.56253     0.95229
       997 57625.35690    53.24989    54.45372     0.91865
       998 57671.45719    53.36184    53.65515     0.93196
       999 57717.59435    53.50455    54.58450     0.91594
      1000 57763.76843    53.69146    52.12188     0.95926
      1001 57809.97944    53.94415    53.54822     0.93394
      1002 57856.22743    54.29988    54.90340     0.91130
      1003 57902.51241    54.84145    55.20914     0.90681
      1004 57948.83442    55.90212    56.12473     0.89270
      1005 57995.19349    59.15204    61.05912     0.82130
      1006 58041.58964    70.37169    67.64995     0.74205
      1007 58088.02291    99.25675    98.81380     0.50859
      1008 58134.49333   144.84872   145.75651     0.34521
      1009 58181.00093   177.12134   171.07816     0.29449
      1010 58227.54573   165.95114   160.86411     0.31360
      1011 58274.12776   127.61288   129.64793     0.38962
      1012 58320.74707    92.78566    96.87130     0.52216
      1013 58367.40366    72.36521    77.82363     0.65087
      1014 58414.09759    62.58134    67.38300     0.75279
      1015 58460.82886    58.08676    61.61646     0.82442
      1016 58507.59753    55.93013    58.69645     0.86669
      1017 58554.40361    54.82310    57.74760     0.88222
      1018 58601.24713    54.22295    54.92019     0.92898
      1019 58648.12813    53.88485    53.90223     0.94787
      1020 58695.04663    53.68101    54.82299     0.93327
      1021 58742.00267    53.54493    53.51712     0.95737
      1022 58788.99627    53.44600    57.28319     0.89566
      1023 58836.02747    53.37092    54.16894     0.94845
      1024 58883.09629    53.31277    55.80690     0.92184
      1025 58930.20276    53.26716    53.38413     0.96496
      1026 58977.34693    53.23107    52.84908     0.97600
      1027 59024.52880    53.20236    53.59397     0.96368
      1028 59071.74843    53.17945    54.41471     0.95037
      1029 59119.00583    53.16117    52.89664     0.97889
      1030 59166.30103    53.14661    54.37180     0.95356
      1031 59213.63407    53.13510    54.20549     0.95772
      1032 59261.00498    53.12610    52.69249     0.98649
      1033 59308.41378    53.11918    53.56516     0.97169
      1034 59355.86051    53.11400    54.01287     0.96490
      1035 59403.34520    53.11031    54.80412     0.95222
      1036 59450.86788    53.10786    52.85674     0.98861
      1037 59498.42857    53.10649    52.99783     0.98726
      1038 59546.02732    53.10603    54.05481     0.96922
      1039 59593.66414    53.10637    54.21309     0.96766
      1040 59641.33907    53.10740    54.27574     0.96780
      1041 59689.05214    53.10903    53.25480     0.98763
      1042 59736.80338    53.11118    52.76924     0.99799
      1043 59784.59282    53.11380    52.95079     0.99580
      1044 59832.42050    53.11683    53.45708     0.98752
      1045 59880.28644    53.12021    52.88774     0.99924
      1046 59928.19066    53.12392    51.87089     1.01985
      1047 59976.13322    53.12791    54.07243     0.97920
      1048 60024.11412    53.13216    53.52195     0.99002
      1049 60072.13341    53.13663    53.62111     0.98879
      1050 60120.19112    53.14130    52.89872     1.00276
      1051 60168.28727    53.14616    53.25925     0.99628
      1052 60216.42190    53.15118    53.66553     0.98889
      1053 60264.59504    53.15634    52.89299     1.00334
      1054 60312.80672    53.16163    51.92144     1.02195
      1055 60361.05696    53.14868    53.76697     0.98655
      1056 60409.34581    53.14104    53.37847     0.99324
      1057 60457.67329    53.14334    54.52722     0.97167
      1058 60506.03942    53.14870    54.60987     0.96941
      1059 60554.44426    53.15521    54.55003     0.96952
      1060 60602.88781    53.16216    53.21122     0.99278
      1061 60651.37012    53.16929    55.04244     0.95852
      1062 60699.89122    53.17647    53.58368     0.98321
      1063 60748.45113    53.18366    52.88812     0.99458
      1064 60797.04989    53.19086    53.47311     0.98203
      1065 60845.68753    53.19804    53.74301     0.97531
      1066 60894.36408    53.20521    53.92558     0.97009
      1067 60943.07957    53.21236    53.29196     0.97957
      1068 60991.83404    53.21949    53.83279     0.96757
      1069 61040.62750    53.22661    52.70750     0.98593
      1070 61089.46001    53.23371    52.06406     0.99570
      1071 61138.33157    53.24079    52.77555     0.97980
      1072 61187.24224    53.26779    54.73603     0.94225
      1073 61236.19203    53.28759    51.20958     1.00442
      1074 61285.18099    53.30018    53.65316     0.95600
      1075 61334.20913    53.31048    55.74272     0.91753
      1076 61383.27650    53.31992    53.59181     0.95157
      1077 61432.38312    53.32908    52.49171     0.96865
      1078 61481.52903    53.33818    52.35254     0.96833
      1079 61530.71425    53.34734    52.74753     0.95820
      1080 61579.93882    53.35661    53.08587     0.94922
      1081 61629.20277    53.36600    54.72016     0.91808
      1082 61678.50613    53.37555    53.14955     0.94234
      1083 61727.84894    53.38529    50.06688     0.99733
      1084 61777.23122    53.39523    51.78587     0.96130
      1085 61826.65300    53.40539    52.50742     0.94522
      1086 61876.11432    53.41580    53.11200     0.93162
      1087 61925.61522    53.42650    55.48411     0.88907
      1088 61975.15571    53.43750    52.15724     0.94288
      1089 62024.73583    53.44886    53.56282     0.91531
      1090 62074.35562    53.46061    52.46107     0.93163
      1091 62124.01511    53.47280    53.30272     0.91406
      1092 62173.71432    53.48551    53.42892     0.90904
      1093 62223.45329    53.49879    54.25734     0.89237
      1094 62273.23205    53.51272    53.14202     0.90826
      1095 62323.05064    53.52741    52.41270     0.91806
      1096 62372.90908    53.54296    52.57272     0.91248
      1097 62422.80741    53.55951    53.54602     0.89321
      1098 62472.74565    53.57722    55.27634     0.86271
      1099 62522.72385    53.59629    52.82752     0.90012
      1100 62572.74203    53.61695    53.71358     0.88280
      1101 62622.80022    53.63949    52.88715     0.89416
      1102 62672.89846    53.66427    53.79035     0.87682
      1103 62723.03678    53.69175    53.09939     0.88596
      1104 62773.21521    53.72248    52.37922     0.89591
      1105 62823.43378    53.75718    54.59934     0.85741
      1106 62873.69253    53.79682    52.86508     0.88345
      1107 62923.99148    53.84260    54.91785     0.84848
      1108 62974.33068    53.89615    54.33131     0.85572
      1109 63024.71014    53.95964    54.88242     0.84526
      1110 63075.12991    54.03611    54.00837     0.85707
      1111 63125.59001    54.12981    53.47545     0.86375
      1112 63176.09048    54.24689    53.76366     0.85728
      1113 63226.63136    54.39647    53.66136     0.85708
      1114 63277.21266    54.59257    53.88556     0.85169
      1115 63327.83443    54.85772    52.51690     0.87200
      1116 63378.49670    55.23297    54.42517     0.83961
      1117 63429.19950    55.83030    53.86386     0.84651
      1118 63479.94286    57.13712    54.90521     0.82864
      1119 63530.72681    61.17459    58.63943     0.77416
      1120 63581.55139    73.43323    74.24709     0.61005
      1121 63632.41663   101.08737   102.11895     0.44255
      1122 63683.32257   141.34741   147.44042     0.30581
      1123 63734.26922   170.10794   173.52003     0.25926
      1124 63785.25664   163.07694   166.54443     0.26950
      1125 63836.28485   130.23003   132.71654     0.33741
      1126 63887.35387    96.80445   101.12766     0.44178
      1127 63938.46376    75.21683    79.37660     0.56153
      1128 63989.61453    64.28731    67.57681     0.65804
      1129 64040.80622    59.26129    63.27377     0.70112
      1130 64092.03886    56.91944    59.60682     0.74248
      1131 64143.31249    55.75251    56.67114     0.77905
      1132 64194.62714    55.12606    57.08294     0.77153
      1133 64245.98285    54.76687    56.83767     0.77294
      1134 64297.37963    54.54472    53.94466     0.81236
      1135 64348.81754    54.39450    55.49841     0.78764
      1136 64400.29659    54.28493    55.93676     0.77950
      1137 64451.81683    54.20132    53.08998     0.81922
      1138 64503.37828    54.13599    57.83628     0.75007
      1139 64554.98098    54.08418    53.17851     0.81366
      1140 64606.62497    54.04266    52.96932     0.81476
      1141 64658.31027    54.00915    52.17896     0.82493
      1142 64710.03692    53.98189    55.55496     0.77276
      1143 64761.80495    53.95963    54.27935     0.78880
      1144 64813.61439    53.94139    54.61454     0.78183
      1145 64865.46528    53.92644    55.54015     0.76669
      1146 64917.35765    53.91421    54.56458     0.77822
      1147 64969.29154    53.90423    53.72630     0.78815
      1148 65021.26697    53.89615    55.72619     0.75771
      1149 65073.28399    53.88966    53.91424     0.78094
      1150 65125.34261    53.88452    53.83088     0.77991
      1151 65177.44289    53.88055    55.18035     0.75865
      1152 65229.58484    53.87757    52.75230     0.79129
      1153 65281.76851    53.87546    54.85062     0.75883
      1154 65333.99393    53.87409    53.29790     0.77869
      1155 65386.26112    53.87337    54.77980     0.75546
      1156 65438.57013    53.87322    54.42708     0.75819
      1157 65490.92099    53.87358    54.94558     0.74892
      1158 65543.31372    53.87437    56.58611     0.72517
      1159 65595.74837    53.87556    51.92933     0.78801
      1160 65648.22497    53.87709    55.16094     0.73980
      1161 65700.74355    53.87893    55.36317     0.73505
      1162 65753.30415    53.88105    54.48207     0.74487
      1163 65805.90679    53.88341    53.00246     0.76355
      1164 65858.55152    53.88599    54.56146     0.73968
      1165 65911.23836    53.88877    55.85479     0.72057
      1166 65963.96735    53.89173    55.41022     0.72436
      1167 66016.73852    53.89484    55.18692     0.72531
      1168 66069.55191    53.89810    53.95909     0.73980
      1169 66122.40755    53.90149    54.48179     0.73073
      1170 66175.30548    53.90499    54.70444     0.72580
      1171 66228.24572    53.90860    56.39301     0.70216
      1172 66281.22832    53.90501    56.74882     0.69587
      1173 66334.25330    53.88933    54.33893     0.72476
      1174 66387.32071    53.88763    53.44345     0.73489
      1175 66440.43056    53.89046    55.47872     0.70600
      1176 66493.58291    53.89486    54.52911     0.71635
      1177 66546.77777    53.89983    54.52319     0.71448
      1178 66600.01520    53.90500    54.33574     0.71502
      1179 66653.29521    53.91024    55.25523     0.70125
      1180 66706.61784    53.91550    51.85590     0.74525
      1181 66759.98314    53.92077    54.71429     0.70449
      1182 66813.39112    53.92601    55.94609     0.68723
      1183 66866.84184    53.93124    55.77370     0.68763
      1184 66920.33531    53.93645    54.63114     0.70027
      1185 66973.87158    53.94164    55.44641     0.68829
      1186 67027.45068    53.94682    55.10846     0.69083
      1187 67081.07264    53.95198    55.13649     0.68881
      1188 67134.73750    53.95712    54.76824     0.69177
      1189 67188.44529    53.96224    54.45115     0.69411
      1190 67242.19604    53.96734    55.35290     0.68115
      1191 67295.98980    53.97243    55.35543     0.67945
      1192 67349.82659    53.97750    57.83705     0.64871
      1193 67403.70645    53.98255    54.90718     0.68164
      1194 67457.62942    53.98758    55.04294     0.67828
      1195 67511.59552    53.99260    54.23898     0.68664
      1196 67565.60480    53.99760    56.41769     0.65851
      1197 67619.65728    54.00258    55.04363     0.67331
      1198 67673.75301    54.00754    54.79669     0.67473
      1199 67727.89201    54.01248    55.16965     0.66860
      1200 67782.07432    54.01741    56.71028     0.64893
      1201 67836.29998    54.02232    54.03425     0.67952
      1202 67890.56902    54.02721    54.89264     0.66740
      1203 67944.88148    54.03208    56.82017     0.64333
      1204 67999.23738    54.03693    55.65687     0.65533
      1205 68053.63677    54.10755    56.10861     0.64863
      1206 68108.07968    54.18701    55.10189     0.65904
      1207 68162.56615    54.26124    54.42101     0.66585
      1208 68217.09620    54.29632    58.10575     0.62228
      1209 68271.66987    54.31869    56.62209     0.63723
      1210 68326.28721    54.33651    54.13091     0.66515
      1211 68380.94824    54.35288    56.38741     0.63720
      1212 68435.65300    54.36906    56.00310     0.64024
      1213 68490.40152    54.38557    57.23767     0.62512
      1214 68545.19384    54.40262    55.76039     0.64035
      1215 68600.03000    54.42037    55.25935     0.64481
      1216 68654.91002    54.43893    54.78504     0.64903
      1217 68709.83395    54.45838    55.97260     0.63391
      1218 68764.80182    54.47880    55.81088     0.63438
      1219 68819.81366    54.50030    55.96122     0.63129
      1220 68874.86951    54.52297    55.63117     0.63364
      1221 68929.96941    54.54691    53.36751     0.65904
      1222 68985.11338    54.57226    56.59488     0.62005
      1223 69040.30147    54.59915    56.29699     0.62189
      1224 69095.53371    54.62775    55.45564     0.62985
      1225 69150.81014    54.65825    55.67418     0.62588
      1226 69206.13079    54.69084    56.61540     0.61398
      1227 69261.49569    54.72576    55.68951     0.62264
      1228 69316.90489    54.76330    56.69897     0.61000
      1229 69372.35841    54.80374    56.90464     0.60621
      1230 69427.85630    54.84747    57.20114     0.60147
      1231 69483.39858    54.89488    55.22810     0.62128
      1232 69538.98530    54.94645    56.28457     0.60796
      1233 69594.61649    55.00276    57.46386     0.59387
      1234 69650.29218    55.06447    56.35662     0.60389
      1235 69706.01242    55.13234    57.24521     0.59292
      1236 69761.77723    55.20730    56.71843     0.59683
      1237 69817.58665    55.29050    56.83736     0.59403
      1238 69873.44072    55.38329    54.99297     0.61239
      1239 69929.33947    55.48724    56.88508     0.59056
      1240 69985.28294    55.60431    55.97630     0.59872
      1241 70041.27117    55.73690    57.80982     0.57840
      1242 70097.30419    55.88802    55.90086     0.59682
      1243 70153.38203    56.06142    58.06602     0.57331
      1244 70209.50474    56.26184    55.39201     0.59969
      1245 70265.67234    56.49536    58.22629     0.56927
      1246 70321.88488    56.76985    58.53211     0.56509
      1247 70378.14239    57.09569    59.74749     0.55242
      1248 70434.44490    57.48671    58.78173     0.56030
      1249 70490.79246    57.96176    59.08987     0.55619
      1250 70547.18509    58.54695    59.09432     0.55496
      1251 70603.62284    59.27929    58.63969     0.55807
      1252 70660.10574    60.21265    60.04950     0.54382
      1253 70716.63382    61.42779    61.70871     0.52810
      1254 70773.20713    63.05188    60.26660     0.53964
      1255 70829.82569    65.31621    62.08122     0.52282
      1256 70886.48955    68.84011    63.12716     0.51317
      1257 70943.19875    76.02621    70.97641     0.45557
      1258 70999.95330    95.80239    84.30130     0.38288
      1259 71056.75327   151.97073   134.99910     0.23869
      1260 71113.59867   281.52140   271.08373     0.11868
      1261 71170.48955   497.09887   512.72376     0.06265
      1262 71227.42594   725.18625   748.02835     0.04288
      1263 71284.40788   814.92819   823.09732     0.03892
      1264 71341.43541   702.92028   695.13018     0.04603
      1265 71398.50856   489.45469   507.92860     0.06293
      1266 71455.62736   297.80873   327.49674     0.09750
      1267 71512.79186   177.03636   212.54993     0.15007
      1268 71570.00210   115.57602   145.13302     0.21957
      1269 71627.25810    87.24288   111.44592     0.28566
      1270 71684.55991    74.11959    93.13291     0.34149
      1271 71741.90755    67.59623    78.56305     0.40440
      1272 71799.30108    64.04243    73.98626     0.42894
      1273 71856.74052    61.91058    70.44530     0.44997
      1274 71914.22591    60.50063    65.16477     0.48582
      1275 71971.75729    59.48662    67.02578     0.47168
      1276 72029.33470    58.71483    62.53282     0.50481
      1277 72086.95817    58.10758    62.09552     0.50754
      1278 72144.62773    57.61987    63.35033     0.49660
      1279 72202.34344    57.22213    62.89892     0.49921
      1280 72260.10531    56.89361    61.49640     0.50954
      1281 72317.91340    56.61923    58.01604     0.53894
      1282 72375.76773    56.38781    59.46251     0.52464
      1283 72433.66834    56.19093    61.88499     0.50290
      1284 72491.61527    56.02211    57.97844     0.53548
      1285 72549.60857    55.87636    59.80354     0.51783
      1286 72607.64825    55.74971    56.78403     0.54397
      1287 72665.73437    55.63916    56.60670     0.54427
      1288 72723.86696    55.54205    57.66619     0.53287
      1289 72782.04605    55.45632    56.44824     0.54293
      1290 72840.27169    55.38031    58.26747     0.52458
      1291 72898.54391    55.31266    55.66893     0.54759
      1292 72956.86274    55.25222    58.18860     0.52246
      1293 73015.22823    55.19805    55.14824     0.54976
      1294 73073.64042    55.14933    59.36709     0.50930
      1295 73132.09933    55.10541    57.17434     0.52739
      1296 73190.60501    55.06569    57.89489     0.51942
      1297 73249.15749    55.02970    56.41753     0.53158
      1298 73307.75682    54.99699    54.53006     0.54851
      1299 73366.40302    54.96722    55.48118     0.53766
      1300 73425.09615    54.94007    58.31923     0.51012
      1301 73483.83622    54.91526    55.34146     0.53613
      1302 73542.62329    54.89254    57.45029     0.51507
      1303 73601.45739    54.87172    55.50413     0.53170
      1304 73660.33856    54.85260    53.07168     0.55457
      1305 73719.26683    54.83504    58.18875     0.50444
      1306 73778.24224    54.81888    57.04699     0.51316
      1307 73837.26483    54.80399    57.50730     0.50770
      1308 73896.33465    54.79025    55.87318     0.52117
      1309 73955.45171    54.77757    54.50406     0.53287
      1310 74014.61607    54.76584    58.06280     0.49892
      1311 74073.82777    54.75500    54.37131     0.53142
      1312 74133.08683    54.74496    54.51264     0.52867
      1313 74192.39330    54.73566    56.04779     0.51284
      1314 74251.74721    54.72705    53.26780     0.53816
      1315 74311.14861    54.71906    54.46317     0.52491
      1316 74370.59753    54.71165    56.40543     0.50541
      1317 74430.09401    54.63891    56.35818     0.50437
      1318 74489.63808    54.51882    54.55167     0.51951
      1319 74549.22979    54.48607    56.98633     0.49577
      1320 74608.86918    54.47626    58.05596     0.48509
      1321 74668.55627    54.47432    55.53822     0.50543
      1322 74728.29112    54.47520    54.50783     0.51328
      1323 74788.07375    54.47710    56.66421     0.49208
      1324 74847.90421    54.47930    57.82879     0.48054
      1325 74907.78253    54.48174    55.75219     0.49673
      1326 74967.70876    54.48415    54.13273     0.50984
      1327 75027.68293    54.48653    53.41126     0.51494
      1328 75087.70507    54.48890    55.89554     0.49035
      1329 75147.77524    54.49124    56.30986     0.48505
      1330 75207.89346    54.49357    55.47708     0.49062
      1331 75268.05977    54.49586    54.93237     0.49378
      1332 75328.27422    54.49814    55.67763     0.48548
      1333 75388.53684    54.50039    55.83288     0.48247
      1334 75448.84767    54.50262    55.35427     0.48497
      1335 75509.20675    54.50483    54.79528     0.48826
      1336 75569.61411    54.50702    58.16729     0.45841
      1337 75630.06980    54.50918    56.40319     0.47119
      1338 75690.57386    54.51132    56.24630     0.47098
      1339 75751.12632    54.51344    59.60517     0.44303
      1340 75811.72722    54.51553    56.86398     0.46296
      1341 75872.37660    54.51760    55.62520     0.47186
      1342 75933.07450    54.51965    56.20841     0.46560
      1343 75993.82096    54.52167    53.72460     0.48574
      1344 76054.61602    54.52367    53.95097     0.48236
      1345 76115.45971    54.52565    53.59718     0.48422
      1346 76176.35208    54.52761    56.48372     0.45825
      1347 76237.29316    54.52954    56.09007     0.46025
      1348 76298.28300    54.53145    56.77911     0.45349
      1349 76359.32162    54.53333    56.45687     0.45492
      1350 76420.40908    54.53519    56.87232     0.45046
      1351 76481.54541    54.53703    57.09181     0.44762
      1352 76542.73064    54.53885    57.85917     0.44060
      1353 76603.96483    54.54064    55.48217     0.45837
      1354 76665.24800    54.54240    51.63321     0.49137
      1355 76726.58020    54.54415    55.19140     0.45862
      1356 76787.96146    54.54587    56.62601     0.44597
      1357 76849.39183    54.54756    55.84349     0.45118
      1358 76910.87134    54.54924    55.01756     0.45690
      1359 76972.40004    54.55089    54.62780     0.45909
      1360 77033.97796    54.55251    56.27730     0.44457
      1361 77095.60514    54.55411    52.08841     0.47914
      1362 77157.28163    54.55569    54.55024     0.45636
      1363 77219.00745    54.55724    57.18990     0.43416
      1364 77280.78266    54.55877    53.02343     0.46701
      1365 77342.60729    54.56027    53.21215     0.46406
      1366 77404.48137    54.56175    56.20855     0.43806
      1367 77466.40496    54.56321    53.80900     0.45624
      1368 77528.37808    54.56464    55.03490     0.44472
      1369 77590.40078    54.56605    55.04191     0.44329
      1370 77652.47310    54.56743    54.31128     0.44784
      1371 77714.59508    54.56879    53.28901     0.45497
      1372 77776.76676    54.57013    53.99949     0.44754
      1373 77838.98817    54.57144    55.75385     0.43204
      1374 77901.25936    54.57272    53.43919     0.44927
      1375 77963.58037    54.57398    56.87694     0.42071
      1376 78025.95123    54.57522    54.30002     0.43921
      1377 78088.37199    54.57643    57.17517     0.41572
      1378 78150.84269    54.66916    55.04672     0.43034
      1379 78213.36337    54.73466    56.25093     0.41970
      1380 78275.93406    54.75962    52.06641     0.45188
      1381 78338.55480    54.77315    51.90521     0.45172
      1382 78401.22565    54.78284    55.93709     0.41771
      1383 78463.94663    54.79134    52.78178     0.44115
      1384 78526.71779    54.79962    54.38847     0.42662
      1385 78589.53916    54.80803    53.36948     0.43324
      1386 78652.41079    54.81671    56.12172     0.41052
      1387 78715.33272    54.82577    55.49967     0.41361
      1388 78778.30499    54.83525    56.62697     0.40385
      1389 78841.32763    54.84518    55.13513     0.41317
      1390 78904.40069    54.85559    57.25196     0.39630
      1391 78967.52421    54.86652    55.27701     0.40876
      1392 79030.69823    54.87802    57.95883     0.38818
      1393 79093.92279    54.89014    56.51859     0.39632
      1394 79157.19793    54.90292    54.80153     0.40690
      1395 79220.52369    54.91642    56.22601     0.39477
      1396 79283.90011    54.93071    55.94611     0.39489
      1397 79347.32723    54.94585    54.02747     0.40699
      1398 79410.80509    54.96195    55.24315     0.39616
      1399 79474.33373    54.97908    52.84207     0.41221
      1400 79537.91320    54.99734    53.36809     0.40623
      1401 79601.54353    55.01683    52.59866     0.41025
      1402 79665.22476    55.03767    52.93615     0.40575
      1403 79728.95694    55.06002    54.30196     0.39373
      1404 79792.74011    55.08401    53.60870     0.39702
      1405 79856.57430    55.10985    56.86899     0.37259
      1406 79920.45956    55.13771    59.01561     0.35747
      1407 79984.39593    55.16783    58.55744     0.35871
      1408 80048.38345    55.20049    53.21345     0.39305
      1409 80112.42215    55.23597    55.59713     0.37463
      1410 80176.51209    55.27462    54.81386     0.37842
      1411 80240.65330    55.31685    53.87460     0.38347
      1412 80304.84582    55.36313    56.47205     0.36437
      1413 80369.08970    55.41400    56.06269     0.36557
      1414 80433.38497    55.47009    53.73829     0.37987
      1415 80497.73168    55.53218    54.34591     0.37414
      1416 80562.12986    55.60122    55.35387     0.36586
      1417 80626.57957    55.67823    53.04925     0.38021
      1418 80691.08083    55.76450    56.00405     0.35869
      1419 80755.63370    55.86159    51.48669     0.38855
      1420 80820.23820    55.97140    54.61318     0.36478
      1421 80884.89439    56.09625    53.02944     0.37409
      1422 80949.60231    56.23905    55.07935     0.35863
      1423 81014.36199    56.40341    55.82752     0.35229
      1424 81079.17348    56.59390    58.16785     0.33663
      1425 81144.03682    56.81637    55.91504     0.34863
      1426 81208.95205    57.07839    56.53044     0.34327
      1427 81273.91921    57.38990    54.04803     0.35739
      1428 81338.93835    57.76414    57.52617     0.33421
      1429 81404.00950    58.21906    56.17913     0.34061
      1430 81469.13271    58.77948    56.29092     0.33831
      1431 81534.30801    59.48041    55.45392     0.34177
      1432 81599.53546    60.37267    61.33999     0.30750
      1433 81664.81509    61.53373    54.86710     0.34215
      1434 81730.14694    63.10008    58.55120     0.31911
      1435 81795.53106    65.40561    59.30844     0.31358
      1436 81860.96748    69.55878    65.95646     0.28067
      1437 81926.45625    79.25712    73.14947     0.25192
      1438 81991.99742   104.36550    94.95715     0.19319
      1439 82057.59102   163.22042   159.77304     0.11431
      1440 82123.23709   274.53279   293.63239     0.06192
      1441 82188.93568   433.17071   492.96888     0.03672
      1442 82254.68683   585.27129   650.32491     0.02771
      1443 82320.49058   643.81344   676.06700     0.02654
      1444 82386.34697   572.45323   591.96088     0.03018
      1445 82452.25605   425.08246   434.07988     0.04099
      1446 82518.21785   278.30929   298.58887     0.05933
      1447 82584.23243   174.12658   189.71094     0.09300
      1448 82650.29981   115.19598   134.66562     0.13047
      1449 82716.42005    86.42423   101.90288     0.17170
      1450 82782.59319    73.20763    87.17241     0.19989
      1451 82848.81926    66.95836    76.75564     0.22609
      1452 82915.09832    63.69457    70.47590     0.24523
      1453 82981.43040    61.75405    67.45593     0.25515
      1454 83047.81554    60.45435    61.90263     0.27688
      1455 83114.25379    59.50588    64.15470     0.26605
      1456 83180.74520    58.77679    61.72064     0.27537
      1457 83247.28979    58.19924    57.31735     0.29526
      1458 83313.88763    57.73277    55.60677     0.30303
      1459 83380.53874    57.35041    60.85499     0.27570
      1460 83447.24317    57.03304    54.41515     0.30699
      1461 83514.00096    56.76671    53.32914     0.31188
      1462 83580.81216    56.54101    53.56101     0.30919
      1463 83647.67681    56.34806    53.49051     0.30826
      1464 83714.59495    56.18179    52.38271     0.31342
      1465 83781.56663    56.03747    56.21924     0.29077
      1466 83848.59188    55.91138    57.93787     0.28092
      1467 83915.67076    55.80054    54.91953     0.29508
      1468 83982.80329    55.70256    54.41558     0.29652
      1469 84049.98953    55.61560    53.78266     0.29870
      1470 84117.22953    55.53796    55.08259     0.29037
      1471 84184.52331    55.46831    54.51059     0.29212
      1472 84251.87093    55.40559    51.34795     0.30873
      1473 84319.27243    55.34887    52.84712     0.29862
      1474 84386.72784    55.29739    55.95291     0.28077
      1475 84454.23723    55.25050    54.42063     0.28734
      1476 84521.80062    55.20766    55.05972     0.28269
      1477 84589.41806    55.16839    53.38162     0.29022
      1478 84657.08959    55.13228    56.74592     0.27173
      1479 84724.81526    55.09899    55.25423     0.27776
      1480 84792.59511    55.06821    50.40856     0.30303
      1481 84860.42919    55.03968    51.63300     0.29445
      1482 84928.31753    55.01316    53.33014     0.28374
      1483 84996.26019    54.98846    53.44778     0.28180
      1484 85064.25720    54.96540    56.76631     0.26409
      1485 85132.30860    54.94381    54.95353     0.27153
      1486 85200.41445    54.92358    50.89980     0.29180
      1487 85268.57478    54.90457    50.32339     0.29379
      1488 85336.78964    54.88666    54.15570     0.27175
      1489 85405.05907    54.86977    55.42543     0.26432
      1490 85473.38312    54.85379    54.09654     0.26961
      1491 85541.76183    54.83865    51.16719     0.28380
      1492 85610.19523    54.82428    51.45866     0.28097
      1493 85678.68339    54.81061    54.11062     0.26606
      1494 85747.22634    54.79760    56.01490     0.25592
      1495 85815.82412    54.78518    52.32874     0.27280
      1496 85884.47678    54.77331    55.08173     0.25808
      1497 85953.18436    54.76195    52.48810     0.26969
      1498 86021.94691    54.75106    54.12817     0.26042
      1499 86090.76446    54.74061    53.92849     0.26029
      1500 86159.63708    54.73056    54.22597     0.25778
      1501 86228.56479    54.72088    51.50647     0.27027
      1502 86297.54764    54.71154    50.42098     0.27495
      1503 86366.58568    54.70252    49.39642     0.27951
      1504 86435.67894    54.66204    52.86963     0.26009
      1505 86504.82749    54.55417    53.15506     0.25766
      1506 86574.03135    54.51948    53.87889     0.25319
      1507 86643.29057    54.50708    52.10195     0.26081
      1508 86712.60521    54.50139    53.63055     0.25241
      1509 86781.97529    54.49784    49.08503     0.27476
      1510 86851.40087    54.49492    51.79290     0.25946
      1511 86920.88199    54.49223    54.66217     0.24498
      1512 86990.41870    54.48958    53.12191     0.25125
      1513 87060.01103    54.48690    50.88613     0.26145
      1514 87129.65904    54.48418    50.28636     0.26377
      1515 87199.36277    54.48144    53.07699     0.24919
      1516 87269.12226    54.47866    48.67162     0.27101
      1517 87338.93756    54.47584    54.26558     0.24247
      1518 87408.80871    54.47300    54.16029     0.24239
      1519 87478.73575    54.47012    49.53682     0.26448
      1520 87548.71874    54.46721    52.83336     0.24755
      1521 87618.75772    54.46426    51.37720     0.25420
      1522 87688.85272    54.46128    51.89545     0.25138
      1523 87759.00381    54.45827    51.17269     0.25471
      1524 87829.21101    54.45522    52.12355     0.24992
      1525 87899.47438    54.45214    52.98484     0.24578
      1526 87969.79396    54.44903    52.60546     0.24753
      1527 88040.16979    54.44588    50.37234     0.25854
      1528 88110.60193    54.44270    51.66253     0.25215
      1529 88181.09041    54.43949    51.41000     0.25350
      1530 88251.63528    54.43624    51.61280     0.25264
      1531 88322.23659    54.43296    52.65512     0.24779
      1532 88392.89438    54.42964    53.38769     0.24454
      1533 88463.60869    54.42629    53.50651     0.24415
      1534 88534.37958    54.42291    54.69755     0.23898
      1535 88605.20709    54.41949    53.52017     0.24438
      1536 88676.09125    54.41603    55.09948     0.23749
      1537 88747.03212    54.41255    49.04372     0.26691
      1538 88818.02975    54.40903    52.23843     0.25065
      1539 88889.08417    54.40547    52.76549     0.24819
      1540 88960.19544    54.40188    53.68084     0.24396
      1541 89031.36360    54.39825    54.37406     0.24082
      1542 89102.58869    54.39459    48.50553     0.26989
      1543 89173.87076    54.39090    55.01927     0.23785
      1544 89245.20986    54.38717    53.28936     0.24544
      1545 89316.60602    54.38340    50.79993     0.25730
      1546 89388.05931    54.37961    50.91722     0.25650
      1547 89459.56976    54.37577    52.57417     0.24819
      1548 89531.13741    54.37190    51.93986     0.25095
      1549 89602.76232    54.36800    50.85061     0.25602
      1550 89674.44453    54.36406    53.30508     0.24389
      1551 89746.18409    54.36008    51.53974     0.25185
      1552 89817.98103    54.35607    51.39959     0.25209
      1553 89889.83542    54.35202    50.88258     0.25415
      1554 89961.74729    54.34794    52.77612     0.24450
      1555 90033.71669    54.34383    49.25072     0.26138
      1556 90105.74366    54.33967    56.23058     0.22835
      1557 90177.82825    54.33549    49.27752     0.25986
      1558 90249.97052    54.33126    54.04032     0.23627
      1559 90322.17049    54.32700    48.78259     0.26095
      1560 90394.42823    54.32271    51.29858     0.24738
      1561 90466.74377    54.31837    47.19401     0.26804
      1562 90539.11717    54.31401    51.86892     0.24309
      1563 90611.54846    54.30960    52.12088     0.24111
      1564 90684.03770    54.30516    53.65384     0.23344
      1565 90756.58493    54.30069    49.67057     0.25130
      1566 90829.19020    54.29617    53.53869     0.23235
      1567 90901.85355    54.29163    56.38489     0.21986
      1568 90974.57503    54.28704    52.12662     0.23701
      1569 91047.35469    54.28242    49.62343     0.24812
      1570 91120.19258    54.27776    50.03349     0.24527
      1571 91193.08873    54.27307    56.41046     0.21684
      1572 91266.04320    54.26833    51.99765     0.23449
      1573 91339.05604    54.26357    52.48822     0.23158
      1574 91412.12728    54.25876    56.44247     0.21471
      1575 91485.25698    54.25392    54.45630     0.22189
      1576 91558.44519    54.24904    50.37917     0.23916
      1577 91631.69194    54.24412    49.52110     0.24263
      1578 91704.99730    54.23917    50.15745     0.23889
      1579 91778.36130    54.23418    56.15030     0.21282
      1580 91851.78398    54.22915    50.76193     0.23479
      1581 91925.26541    54.22409    52.66209     0.22572
      1582 91998.80562    54.21898    48.66710     0.24362
      1583 92072.40467    54.21384    52.26209     0.22626
      1584 92146.06259    54.20867    56.97900     0.20699
      1585 92219.77944    54.20345    53.81614     0.21856
      1586 92293.55527    54.19820    54.21897     0.21635
      1587 92367.39011    54.19291    54.02848     0.21651
      1588 92441.28402    54.18758    54.01135     0.21596
      1589 92515.23705    54.18221    50.90188     0.22848
      1590 92589.24924    54.17681    52.86542     0.21934
      1591 92663.32064    54.17137    50.69205     0.22804
      1592 92737.45129    54.16589    53.02059     0.21735
      1593 92811.64126    54.16037    54.06070     0.21249
      1594 92885.89057    54.15481    49.08365     0.23327
      1595 92960.19928    54.14922    53.71510     0.21246
      1596 93034.56744    54.14359    52.22539     0.21778
      1597 93108.99509    54.13792    56.37324     0.20107
      1598 93183.48229    54.13221    52.40572     0.21556
      1599 93258.02908    54.12646    52.31877     0.21518
      1600 93332.63550    54.12067    54.99307     0.20402
      1601 93407.30161    54.11485    48.56165     0.23026
      1602 93482.02745    54.10898    50.69882     0.21981
      1603 93556.81307    54.10308    49.42639     0.22473
      1604 93631.65852    54.09714    50.21997     0.22046
      1605 93706.56385    54.09116    54.00558     0.20435
      1606 93781.52910    54.08514    50.99454     0.21573
      1607 93856.55432    54.07908    50.88049     0.21554
      1608 93931.63957    54.07298    53.96580     0.20259
      1609 94006.78488    54.06684    48.44434     0.22498
      1610 94081.99031    54.06067    52.27485     0.20786
      1611 94157.25590    54.05445    49.75784     0.21770
      1612 94232.58170    54.04819    55.83537     0.19342
      1613 94307.96777    54.04190    50.98809     0.21117
      1614 94383.41414    54.03556    49.36926     0.21745
      1615 94458.92087    54.02919    51.84874     0.20645
      1616 94534.48801    54.02278    49.37435     0.21618
      1617 94610.11560    54.01632    50.45360     0.21096
      1618 94685.80369    54.27923    52.57325     0.20189
      1619 94761.55234    54.61936    57.06523     0.18548
      1620 94837.36158    54.77832    49.73860     0.21221
      1621 94913.23147    54.83641    51.58599     0.20405
      1622 94989.16205    54.86560    54.39649     0.19297
      1623 95065.15338    54.88645    55.59982     0.18827
      1624 95141.20551    54.90545    52.78804     0.19773
      1625 95217.31847    54.92452    57.16833     0.18206
      1626 95293.49232    54.94428    53.28908     0.19474
      1627 95369.72712    54.96511    51.99790     0.19898
      1628 95446.02290    54.98710    50.69968     0.20347
      1629 95522.37972    55.01032    56.29737     0.18268
      1630 95598.79762    55.03484    52.07856     0.19689
      1631 95675.27666    55.06075    55.26791     0.18497
      1632 95751.81688    55.08814    56.51396     0.18035
      1633 95828.41834    55.11714    51.07617     0.19894
      1634 95905.08107    55.14782    51.33187     0.19735
      1635 95981.80513    55.18028    51.39260     0.19650
      1636 96058.59058    55.21466    53.04431     0.18979
      1637 96135.43745    55.25107    54.40840     0.18444
      1638 96212.34580    55.28966    55.18160     0.18128
      1639 96289.31568    55.33058    51.04499     0.19535
      1640 96366.34713    55.37400    54.82791     0.18130
      1641 96443.44021    55.42011    55.50289     0.17854
      1642 96520.59496    55.46909    58.80915     0.16799
      1643 96597.81144    55.52117    56.44484     0.17451
      1644 96675.08969    55.57667    54.77435     0.17932
      1645 96752.42976    55.63577    52.17058     0.18775
      1646 96829.83170    55.69877    51.59517     0.18933
      1647 96907.29557    55.76598    57.78594     0.16860
      1648 96984.82140    55.83774    54.74172     0.17753
      1649 97062.40926    55.91446    54.77087     0.17701
      1650 97140.05919    55.99654    56.44876     0.17135
      1651 97217.77123    56.08447    53.56916     0.18016
      1652 97295.54545    56.17878    53.99297     0.17837
      1653 97373.38189    56.28004    53.05784     0.18116
      1654 97451.28059    56.38892    53.67375     0.17877
      1655 97529.24162    56.50615    51.98680     0.18427
      1656 97607.26501    56.63255    57.29250     0.16695
      1657 97685.35082    56.76907    55.07016     0.17344
      1658 97763.49910    56.91692    55.04000     0.17330
      1659 97841.70990    57.07715    58.15652     0.16380
      1660 97919.98327    57.25110    54.55168     0.17440
      1661 97998.31926    57.44033    54.93583     0.17297
      1662 98076.71791    57.64659    55.21624     0.17187
      1663 98155.17929    57.87193    49.69644     0.19071
      1664 98233.70343    58.11868    52.72334     0.17951
      1665 98312.29039    58.38956    53.11818     0.17792
      1666 98390.94023    58.68770    54.15642     0.17423
      1667 98469.65298    59.01680    54.78122     0.17194
      1668 98548.42870    59.38118    54.99059     0.17097
      1669 98627.26744    59.78593    55.20788     0.16995
      1670 98706.16926    60.23710    56.28700     0.16634
      1671 98785.13419    60.74193    54.27255     0.17213
      1672 98864.16230    61.30910    54.82973     0.16998
      1673 98943.25363    61.94910    52.92103     0.17567
      1674 99022.40823    62.67476    57.80082     0.16043
      1675 99101.62616    63.50179    58.38508     0.15841
      1676 99180.90746    64.44971    59.73485     0.15442
      1677 99260.25219    65.54291    61.63785     0.14924
      1678 99339.66039    66.81221    59.62761     0.15385
      1679 99419.13212    68.29703    60.77636     0.15052
      1680 99498.66742    70.04832    61.82196     0.14757
      1681 99578.26636    72.13426    61.11427     0.14886
      1682 99657.92897    74.64455    63.70858     0.14241
      1683 99737.65531    77.69916    72.50649     0.12478
      1684 99817.44544    81.46594    70.60204     0.12779
      1685 99897.29939    86.18964    67.90881     0.13249
      1686 99977.21723    92.27614    71.55404     0.12539
      1687 100057.19901   100.58867    81.03323     0.11041
      1688 100137.24477   113.46303    91.01549     0.09802
      1689 100217.35456   137.58988   113.75605     0.07820
      1690 100297.52844   190.12581   149.92638     0.05917
      1691 100377.76647   306.80096   265.88438     0.03327
      1692 100458.06868   543.23213   499.93680     0.01764
      1693 100538.43514   953.53276  1007.89538     0.00873
      1694 100618.86588  1539.54824  1727.07246     0.00508
      1695 100699.36098  2194.03402  2429.03695     0.00360
      1696 100779.92047  2687.74170  2808.85539     0.00311
      1697 100860.54440  2778.96460  2755.82536     0.00316
      1698 100941.23284  2428.79226  2362.58066     0.00367
      1699 101021.98582  1827.36398  1736.58811     0.00498
      1700 101102.80341  1211.38246  1201.23971     0.00718
      1701 101183.68565   730.45327   782.00299     0.01100
      1702 101264.63260   422.17167   504.98070     0.01699
      1703 101345.64431   252.52025   336.66975     0.02542
      1704 101426.72082   168.40388   240.00242     0.03557
      1705 101507.86220   128.18540   182.30824     0.04673
      1706 101589.06849   107.93006   137.75672     0.06171
      1707 101670.33975    96.35200   111.87014     0.07583
      1708 101751.67602    88.73533   102.64485     0.08248
      1709 101833.07736    83.18464    88.76281     0.09519
      1710 101914.54382    78.89397    84.30976     0.10003
      1711 101996.07546    75.47026    83.63993     0.10063
      1712 102077.67232    72.68397    70.70790     0.11881
      1713 102159.33445    70.38241    76.09611     0.11018
      1714 102241.06192    68.45907    71.23228     0.11746
      1715 102322.85477    66.83543    67.79066     0.12316
      1716 102404.71305    65.45231    65.29991     0.12758
      1717 102486.63683    64.26437    63.16366     0.13159
      1718 102568.62613    63.23646    61.38265     0.13509
      1719 102650.68104    62.34094    62.73834     0.13186
      1720 102732.80158    61.55587    59.61793     0.13842
      1721 102814.98782    60.86367    60.24757     0.13665
      1722 102897.23981    60.25010    61.97451     0.13252
      1723 102979.55760    59.70355    59.80188     0.13701
      1724 103061.94125    59.21445    57.00516     0.14340
      1725 103144.39080    58.77490    58.11707     0.14034
      1726 103226.90632    58.37828    53.58010     0.15187
      1727 103309.48784    58.01905    51.11692     0.15882
      1728 103392.13543    57.69254    54.94090     0.14742
      1729 103474.84914    57.39476    52.59808     0.15362
      1730 103557.62902    57.12234    60.79320     0.13258
      1731 103640.47512    56.87236    54.60599     0.14723
      1732 103723.38750    56.64233    55.25121     0.14512
      1733 103806.36621    56.43007    55.53094     0.14398
      1734 103889.41130    56.23376    48.91965     0.16297
      1735 103972.52283    56.05185    59.38539     0.13384
      1736 104055.70085    55.88274    51.74782     0.15311
      1737 104138.94541    55.72515    52.80350     0.14956
      1738 104222.25657    55.57801    49.04302     0.16048
      1739 104305.63437    55.44031    53.80262     0.14578
      1740 104389.07888    55.31121    56.03899     0.13947
      1741 104472.59015    55.18993    54.82586     0.14206
      1742 104556.16822    55.07579    53.34699     0.14547
      1743 104639.81315    54.96817    50.30612     0.15371
      1744 104723.52500    54.86652    52.04647     0.14803
      1745 104807.30382    54.77035    53.93194     0.14233
      1746 104891.14967    54.67921    51.91204     0.14732
      1747 104975.06259    54.59272    57.10014     0.13342
      1748 105059.04264    54.51054    53.10859     0.14288
      1749 105143.08987    54.43234    51.60360     0.14646
      1750 105227.20434    54.35778    52.88074     0.14233
      1751 105311.38610    54.28659    55.50727     0.13502
      1752 105395.63521    54.21852    48.51253     0.15382
      1753 105479.95172    54.15336    57.07604     0.13015
      1754 105564.33568    54.09090    55.31102     0.13369
      1755 105648.78715    54.03096    55.70898     0.13211
      1756 105733.30618    53.97335    52.83898     0.13861
      1757 105817.89283    53.91793    54.19902     0.13447
      1758 105902.54714    53.86455    50.88784     0.14249
      1759 105987.26918    53.81311    50.03977     0.14417
      1760 106072.05899    53.76346    55.86972     0.12847
      1761 106156.91664    53.71547    57.83396     0.12348
      1762 106241.84217    53.66904    52.49265     0.13537
      1763 106326.83565    53.62408    54.86816     0.12888
      1764 106411.89712    53.58050    57.54039     0.12232
      1765 106497.02663    53.53821    49.37934     0.14190
      1766 106582.22426    53.49714    52.60220     0.13264
      1767 106667.49003    53.45721    52.09924     0.13337
      1768 106752.82403    53.41838    55.19319     0.12540
      1769 106838.22629    53.38058    49.30721     0.13985
      1770 106923.69687    52.98169    53.55443     0.12831
      1771 107009.23582    52.61784    52.85490     0.12958
      1772 107094.84321    52.52397    55.07002     0.12398
      1773 107180.51909    52.48902    52.58833     0.12945
      1774 107266.26350    52.46977    50.96772     0.13319
      1775 107352.07651    52.45471    56.12499     0.12063
      1776 107437.95817    52.44081    57.15586     0.11816
      1777 107523.90854    52.42719    52.09994     0.12931
      1778 107609.92767    52.41353    52.22307     0.12870
      1779 107696.01561    52.39981    51.74811     0.12958
      1780 107782.17242    52.38604    48.57977     0.13771
      1781 107868.39816    52.37223    48.84299     0.13665
      1782 107954.69288    52.35837    50.30946     0.13236
      1783 108041.05663    52.34446    52.98769     0.12537
      1784 108127.48948    52.33049    46.62566     0.14214
      1785 108213.99147    52.31648    52.63646     0.12560
      1786 108300.56266    52.30242    58.37342     0.11299
      1787 108387.20311    52.28831    56.69184     0.11606
      1788 108473.91288    52.27415    55.15594     0.11899
      1789 108560.69201    52.25994    52.69826     0.12423
      1790 108647.54056    52.24569    52.83479     0.12359
      1791 108734.45859    52.23138    48.67644     0.13379
      1792 108821.44616    52.21702    49.73475     0.13058
      1793 108908.50332    52.20261    56.36348     0.11489
      1794 108995.63012    52.18815    49.71890     0.12986
      1795 109082.82662    52.17365    51.27585     0.12551
      1796 109170.09288    52.15909    56.59213     0.11334
      1797 109257.42896    52.14448    49.90648     0.12808
      1798 109344.83490    52.12983    51.18764     0.12442
      1799 109432.31077    52.11512    53.43030     0.11875
      1800 109519.85662    52.10037    54.42927     0.11612
      1801 109607.47250    52.08556    49.08477     0.12825
      1802 109695.15848    52.07070    49.59946     0.12642
      1803 109782.91461    52.05580    53.48154     0.11677
      1804 109870.74094    52.04084    50.80422     0.12243
      1805 109958.63753    52.02584    52.30326     0.11844
      1806 110046.60444    52.01078    48.14288     0.12814
      1807 110134.64173    51.99567    51.27484     0.11981
      1808 110222.74944    51.98052    52.14693     0.11731
      1809 110310.92764    51.96531    53.35630     0.11416
      1810 110399.17638    51.95005    48.47668     0.12511
      1811 110487.49572    51.93475    51.83634     0.11649
      1812 110575.88572    51.91939    56.05909     0.10724
      1813 110664.34643    51.90398    51.46599     0.11628
      1814 110752.87791    51.88852    53.04405     0.11231
      1815 110841.48021    51.87301    49.24188     0.12042
      1816 110930.15339    51.85745    49.47173     0.11931
      1817 111018.89751    51.84185    52.08730     0.11279
      1818 111107.71263    51.82619    48.22855     0.12124
      1819 111196.59880    51.81048    56.36083     0.10326
      1820 111285.55608    51.79471    51.44729     0.11259
      1821 111374.58453    51.77890    51.16758     0.11268
      1822 111463.68419    51.76304    51.92791     0.11051
      1823 111552.85514    51.74713    56.54496     0.10102
      1824 111642.09743    51.73117    52.58628     0.10813
      1825 111731.41110    51.71515    50.88693     0.11122
      1826 111820.79623    51.69909    49.17058     0.11457
      1827 111910.25287    51.68297    54.39140     0.10310
      1828 111999.78107    51.66681    50.34012     0.11089
      1829 112089.38090    51.65059    51.28386     0.10836
      1830 112179.05240    51.63433    52.94946     0.10451
      1831 112268.79564    51.61801    50.80649     0.10847
      1832 112358.61068    51.60164    49.36179     0.11122
      1833 112448.49757    51.58522    54.83894     0.09976
      1834 112538.45637    51.56875    54.46971     0.10010
      1835 112628.48713    51.55223    60.70589     0.08955
      1836 112718.58992    51.53566    51.09857     0.10609
      1837 112808.76479    51.51904    54.55839     0.09911
      1838 112899.01180    51.50236    48.93915     0.11023
      1839 112989.33101    51.48564    51.64327     0.10424
      1840 113079.72248    51.46886    50.81081     0.10574
      1841 113170.18626    51.45204    49.40566     0.10857
      1842 113260.72241    51.43516    47.79994     0.11204
      1843 113351.33098    51.41823    54.22101     0.09864
      1844 113442.01205    51.40126    57.09355     0.09357
      1845 113532.76566    51.38423    54.15646     0.09854
      1846 113623.59187    51.36715    52.89691     0.10078
      1847 113714.49074    51.35001    51.82015     0.10278
      1848 113805.46234    51.33283    54.68743     0.09730
      1849 113896.50671    51.31560    51.35437     0.10352
      1850 113987.62391    51.29831    59.69314     0.08896
      1851 114078.81401    51.28098    47.31896     0.11210
      1852 114170.07706    51.26359    50.96670     0.10394
      1853 114261.41312    51.24615    50.47524     0.10480
      1854 114352.82225    51.22867    48.47849     0.10893
      1855 114444.30451    51.21113    53.50640     0.09850
      1856 114535.85996    51.19354    50.77141     0.10358
      1857 114627.48864    51.17589    50.89369     0.10308
      1858 114719.19064    51.15820    44.71917     0.11701
      1859 114810.96599    51.14046    49.05742     0.10637
      1860 114902.81476    51.12266    48.04351     0.10831
      1861 114994.73701    51.10482    48.37530     0.10726
      1862 115086.73280    51.08692    50.64260     0.10216
      1863 115178.80219    51.06897    53.69868     0.09606
      1864 115270.94523    51.05097    54.24585     0.09481
      1865 115363.16199    51.03292    54.40785     0.09425
      1866 115455.45252    51.01482    47.72765     0.10711
      1867 115547.81688    50.99667    48.85837     0.10431
      1868 115640.25513    50.97847    47.04691     0.10798
      1869 115732.76734    50.96021    52.33548     0.09675
      1870 115825.35355    50.94190    54.09346     0.09330
      1871 115918.01383    50.92355    48.50762     0.10370
      1872 116010.74824    50.90514    45.27803     0.11073
      1873 116103.55684    50.88668    55.83639     0.08949
      1874 116196.43969    50.86817    46.98881     0.10598
      1875 116289.39684    50.84961    53.99890     0.09191
      1876 116382.42836    50.83100    50.34012     0.09826
      1877 116475.53430    50.81234    48.68275     0.10127
      1878 116568.71473    50.79362    49.65688     0.09895
      1879 116661.96970    50.77486    55.32989     0.08852
      1880 116755.29927    50.75604    47.10818     0.10364
      1881 116848.70351    50.73717    52.80292     0.09218
      1882 116942.18248    50.71826    53.37750     0.09090
      1883 117035.73622    50.69929    52.50608     0.09213
      1884 117129.36481    50.68027    48.93234     0.09856
      1885 117223.06830    50.66119    52.82216     0.09103
      1886 117316.84676    50.64207    51.51919     0.09306
      1887 117410.70023    50.62290    49.57934     0.09642
      1888 117504.62880    50.60368    52.66251     0.09050
      1889 117598.63250    50.58440    49.45118     0.09610
      1890 117692.71140    50.56508    49.59872     0.09553
      1891 117786.86557    50.54570    52.92469     0.08925
      1892 117881.09507    50.52627    54.36465     0.08662
      1893 117975.39994    50.50679    56.24659     0.08345
      1894 118069.78026    50.48726    46.39063     0.10083
      1895 118164.23609    50.46768    48.91529     0.09529
      1896 118258.76747    50.44805    48.23379     0.09628
      1897 118353.37449    50.42837    46.47051     0.09956
      1898 118448.05719    50.40864    48.60125     0.09483
      1899 118542.81563    50.38886    41.38340     0.11094
      1900 118637.64989    50.36902    54.88094     0.08334
      1901 118732.56001    50.34914    48.94671     0.09308
      1902 118827.54605    50.32920    49.35606     0.09195
      1903 118922.60809    50.30922    47.33566     0.09551
      1904 119017.74618    50.28918    45.96649     0.09797
      1905 119112.96037    50.26910    52.83766     0.08489
      1906 119208.25074    50.24896    50.81503     0.08791
      1907 119303.61734    50.22877    44.06121     0.10096
      1908 119399.06024    50.20853    53.06055     0.08347
      1909 119494.57949    50.18824    48.99312     0.08999
      1910 119590.17515    50.16790    54.23872     0.08090
      1911 119685.84729    50.14751    56.56500     0.07720
      1912 119781.59597    50.12707    51.09478     0.08504
      1913 119877.42124    50.10658    51.58734     0.08380
      1914 119973.32318    50.08604    48.36555     0.08892
      1915 120069.30184    50.06545    55.62585     0.07692
      1916 120165.35728    50.04481    50.03443     0.08508
      1917 120261.48957    50.02412    55.70842     0.07604
      1918 120357.69876    50.00338    54.54460     0.07731
      1919 120453.98492    49.98259    49.77999     0.08434
      1920 120550.34811    49.96175    52.37195     0.07984
      1921 120646.78838    49.94085    52.32680     0.07962
      1922 120743.30581    49.91991    45.76286     0.09073
      1923 120839.90046    49.89892    51.46661     0.08041
      1924 120936.57238    49.87788    50.89385     0.08108
      1925 121033.32164    49.85679    53.46893     0.07695
      1926 121130.14829    49.83565    48.49709     0.08461
      1927 121227.05241    49.81445    49.11487     0.08332
      1928 121324.03406    49.79321    49.97921     0.08167
      1929 121421.09328    49.77192    54.28673     0.07499
      1930 121518.23016    49.75058    49.50490     0.08202
      1931 121615.44474    49.72919    50.87287     0.07960
      1932 121712.73710    49.70775    54.47922     0.07412
      1933 121810.10729    49.68627    56.61855     0.07112
      1934 121907.55537    49.66473    56.03342     0.07166
      1935 122005.08142    49.64314    46.45699     0.08618
      1936 122102.68548    49.62150    54.36445     0.07342
      1937 122200.36763    49.59982    53.28014     0.07468
      1938 122298.12792    49.57808    50.93685     0.07786
      1939 122395.96643    49.55630    48.84076     0.08091
      1940 122493.88320    49.53446    43.69143     0.09010
      1941 122591.87831    49.51258    46.67230     0.08401
      1942 122689.95181    49.49065    45.84455     0.08517
      1943 122788.10377    49.46867    48.61673     0.07996
      1944 122886.33425    49.44664    50.38386     0.07682
      1945 122984.64332    49.42456    56.06259     0.06872
      1946 123083.03104    49.40243    51.88715     0.07392
      1947 123181.49746    49.38026    51.34279     0.07435
      1948 123280.04266    49.35803    46.58569     0.08156
      1949 123378.66669    49.33576    46.01822     0.08217
      1950 123477.36963    49.31344    41.72806     0.09017
      1951 123576.15152    49.29107    50.48730     0.07415
      1952 123675.01244    49.26865    57.72904     0.06451
      1953 123773.95245    49.24618    56.14234     0.06599
      1954 123872.97162    49.22367    47.21417     0.07806
      1955 123972.06999    49.20110    58.10361     0.06309
      1956 124071.24765    49.17849    50.45666     0.07227
      1957 124170.50465    49.15583    47.96088     0.07564
      1958 124269.84105    49.13312    54.57526     0.06614
      1959 124369.25692    49.11037    57.62891     0.06233
      1960 124468.75233    49.08757    49.79410     0.07179
      1961 124568.32733    49.06472    59.58448     0.05971
      1962 124667.98199    49.04182    46.87050     0.07556
      1963 124767.71638    49.01887    54.73965     0.06441
      1964 124867.53055    48.99588    50.13917     0.07001
      1965 124967.42458    48.97284    50.64361     0.06901
      1966 125067.39852    48.94975    52.58417     0.06618
      1967 125167.45243    48.92661    49.34231     0.07024
      1968 125267.58640    48.90343    53.60281     0.06439
      1969 125367.80046    48.88020    43.93110     0.07824
      1970 125468.09471    48.85693    54.04416     0.06334
      1971 125568.46918    48.83360    46.34822     0.07355
      1972 125668.92396    48.81023    40.65198     0.08351
      1973 125769.45910    48.78682    49.11070     0.06883
      1974 125870.07466    48.76335    47.24728     0.07123
      1975 125970.77072    48.73984    49.25067     0.06802
      1976 126071.54734    48.71629    47.37606     0.07039
      1977 126172.40458    48.69269    43.37648     0.07653
      1978 126273.34250    48.66904    46.29915     0.07137
      1979 126374.36117    48.64534    42.55699     0.07730
      1980 126475.46066    48.62160    49.46162     0.06622
      1981 126576.64103    48.59782    56.41851     0.05781
      1982 126677.90235    48.57398    48.95373     0.06635
      1983 126779.24467    48.55010    52.85700     0.06121
      1984 126880.66806    48.52618    56.16097     0.05739
      1985 126982.17260    48.50221    51.38218     0.06250
      1986 127083.75834    48.47820    54.05782     0.05920
      1987 127185.42534    48.45414    53.91794     0.05916
      1988 127287.17368    48.43003    50.62168     0.06283
      1989 127389.00342    48.40588    51.39517     0.06171
      1990 127490.91462    48.38169    43.62726     0.07250
      1991 127592.90736    48.35745    56.41067     0.05594
      1992 127694.98168    48.33316    43.83275     0.07183
      1993 127797.13767    48.30883    46.46936     0.06761
      1994 127899.37538    48.28446    46.87551     0.06690
      1995 128001.69488    48.26004    50.46927     0.06203
      1996 128104.09623    48.23558    52.14751     0.05994
      1997 128206.57951    48.21107    61.19374     0.05101
      1998 128309.14477    48.18652    44.91556     0.06940
      1999 128411.79209    48.16192    46.58156     0.06683
      2000 128514.52152    48.13729    45.67890     0.06805
      2001 128617.33314    48.11260    53.15132     0.05841
      2002 128720.22701    48.08788    49.03578     0.06321
      2003 128823.20319    48.06311    50.72976     0.06101
      2004 128926.26175    48.03830    44.66889     0.06916
      2005 129029.40276    48.01344    51.89030     0.05942
      2006 129132.62628    47.98854    48.42399     0.06354
      2007 129235.93238    47.96360    46.25069     0.06638
      2008 129339.32113    47.93862    45.70266     0.06703
      2009 129442.79259    47.91359    49.08036     0.06227
      2010 129546.34682    47.88852    49.19553     0.06198
      2011 129649.98390    47.86341    49.64116     0.06128
      2012 129753.70389    47.83826    49.43121     0.06139
      2013 129857.50685    47.81306    46.90939     0.06453
      2014 129961.39285    47.78782    46.69413     0.06467
      2015 130065.36197    47.76254    56.43757     0.05337
      2016 130169.41426    47.73722    45.92881     0.06542
      2017 130273.54979    47.71186    47.71447     0.06281
      2018 130377.76863    47.68646    61.55547     0.04856
      2019 130482.07084    47.66101    55.68349     0.05354
      2020 130586.45650    47.63552    53.14797     0.05594
      2021 130690.92567    47.80936    50.26511     0.05897
      2022 130795.47841    48.01818    51.76682     0.05709
      2023 130900.11479    48.06005    51.92102     0.05676
      2024 131004.83488    48.05674    46.96956     0.06255
      2025 131109.63875    48.04353    46.76558     0.06264
      2026 131214.52646    48.02828    50.66534     0.05766
      2027 131319.49808    48.01272    47.03074     0.06194
      2028 131424.55368    47.99735    43.02805     0.06752
      2029 131529.69332    47.98224    45.90353     0.06312
      2030 131634.91708    47.96741    53.63587     0.05388
      2031 131740.22501    47.95286    51.69110     0.05576
      2032 131845.61719    47.93862    51.12504     0.05624
      2033 131951.09368    47.92470    45.67368     0.06280
      2034 132056.65456    47.91112    47.53485     0.06019
      2035 132162.29988    47.89788    46.60258     0.06124
      2036 132268.02972    47.88500    48.47569     0.05873
      2037 132373.84415    47.87251    53.87799     0.05271
      2038 132479.74322    47.86041    54.71469     0.05178
      2039 132585.72702    47.84873    46.70638     0.06051
      2040 132691.79560    47.83750    49.29982     0.05719
      2041 132797.94903    47.82673    56.52896     0.04976
      2042 132904.18739    47.81644    52.39142     0.05355
      2043 133010.51074    47.80667    54.66965     0.05119
      2044 133116.91915    47.79742    49.44286     0.05645
      2045 133223.41269    47.78872    48.50573     0.05738
      2046 133329.99142    47.78061    54.41748     0.05099
      2047 133436.65541    47.77312    41.21281     0.06712
      2048 133543.40474    47.76630    50.77879     0.05430
      2049 133650.23946    47.76015    53.13645     0.05171
      2050 133757.15965    47.75473    37.61964     0.07278
      2051 133864.16538    47.75005    43.98886     0.06201
      2052 133971.25671    47.74617    50.77587     0.05353
      2053 134078.43372    47.74313    45.05728     0.06009
      2054 134185.69646    47.74097    55.97450     0.04819
      2055 134293.04502    47.73974    49.10764     0.05474
      2056 134400.47946    47.73952    48.15705     0.05562
      2057 134507.99984    47.74034    45.69258     0.05843
      2058 134615.60624    47.74226    54.84841     0.04853
      2059 134723.29872    47.74535    48.59917     0.05462
      2060 134831.07736    47.74966    49.85860     0.05310
      2061 134938.94223    47.75528    40.51118     0.06520
      2062 135046.89338    47.76227    52.35969     0.05034
      2063 135154.93089    47.77072    48.27879     0.05449
      2064 135263.05484    47.78073    51.40802     0.05108
      2065 135371.26528    47.79241    40.42561     0.06486
      2066 135479.56229    47.80587    48.11501     0.05443
      2067 135587.94594    47.82120    48.16706     0.05431
      2068 135696.41630    47.83851    47.06255     0.05553
      2069 135804.97343    47.85794    47.86391     0.05456
      2070 135913.61741    47.87963    49.81124     0.05239
      2071 136022.34831    47.90374    44.85684     0.05815
      2072 136131.16619    47.93043    44.49957     0.05858
      2073 136240.07112    47.95987    51.05323     0.05103
      2074 136349.06318    47.99227    46.09502     0.05648
      2075 136458.14243    48.02784    43.82333     0.05936
      2076 136567.30894    48.06690    46.55282     0.05583
      2077 136676.56279    48.10962    43.51510     0.05968
      2078 136785.90404    48.15629    45.10291     0.05751
      2079 136895.33276    48.20722    50.94807     0.05085
      2080 137004.84903    48.26274    47.54290     0.05442
      2081 137114.45291    48.32321    47.23476     0.05468
      2082 137224.14447    48.38906    49.65096     0.05192
      2083 137333.92378    48.46073    53.64213     0.04796
      2084 137443.79092    48.53872    56.10362     0.04575
      2085 137553.74596    48.62358    44.13755     0.05800
      2086 137663.78895    48.71593    45.04368     0.05668
      2087 137773.91998    48.81645    44.00183     0.05785
      2088 137884.13912    48.92590    44.14656     0.05747
      2089 137994.44643    49.04527    47.07003     0.05371
      2090 138104.84199    49.17548    47.24239     0.05332
      2091 138215.32586    49.31754    56.58358     0.04435
      2092 138325.89812    49.47270    53.99106     0.04631
      2093 138436.55884    49.64232    46.95379     0.05307
      2094 138547.30809    49.82798    49.51786     0.05016
      2095 138658.14593    50.03148    40.37308     0.06135
      2096 138769.07245    50.25484    49.38034     0.05003
      2097 138880.08771    50.50042    44.62318     0.05524
      2098 138991.19178    50.77092    45.11685     0.05453
      2099 139102.38473    51.06945    43.97167     0.05586
      2100 139213.66664    51.39963    48.11412     0.05097
      2101 139325.03757    51.76568    43.27831     0.05659
      2102 139436.49760    52.17254    45.37450     0.05391
      2103 139548.04680    52.62602    52.38294     0.04665
      2104 139659.68524    53.13302    49.57236     0.04924
      2105 139771.41299    53.70171    53.31863     0.04573
      2106 139883.23012    54.34191    54.61332     0.04459
      2107 139995.13670    55.06544    42.76059     0.05688
      2108 140107.13281    55.88665    50.64646     0.04795
      2109 140219.21852    56.82360    57.74213     0.04199
      2110 140331.39389    57.89826    50.41463     0.04800
      2111 140443.65901    59.13710    53.42448     0.04520
      2112 140556.01393    60.57403    52.31093     0.04605
      2113 140668.45875    62.25234    51.62059     0.04653
      2114 140780.99351    64.22878    50.10283     0.04780
      2115 140893.61831    66.58197    52.77488     0.04524
      2116 141006.33320    69.43290    55.47491     0.04289
      2117 141119.13827    72.99762    55.67165     0.04259
      2118 141232.03358    77.71819    65.18907     0.03624
      2119 141345.01921    84.55735    65.01180     0.03620
      2120 141458.09522    95.57667    68.25258     0.03435
      2121 141571.26170   114.88158    82.66072     0.02825
      2122 141684.51871   149.80536   149.65351     0.01554
      2123 141797.86632   211.74491   189.12385     0.01225
      2124 141911.30462   315.49679   316.03583     0.00730
      2125 142024.83366   475.76760   510.48601     0.00450
      2126 142138.45353   700.39928   738.18676     0.00310
      2127 142252.16429   981.81716  1139.57872     0.00200
      2128 142365.96602  1290.03335  1439.95671     0.00158
      2129 142479.85879  1570.86472  1683.86891     0.00135
      2130 142593.84268  1754.56597  1737.02275     0.00130
      2131 142707.91775  1783.48066  1623.18874     0.00139
      2132 142822.08409  1648.58789  1415.62725     0.00159
      2133 142936.34176  1394.86940  1226.14271     0.00184
      2134 143050.69083  1090.34788   952.31589     0.00236
      2135 143165.13138   795.47846   690.19797     0.00325
      2136 143279.66349   549.02479   508.58198     0.00441
      2137 143394.28722   366.10776   365.38506     0.00613
      2138 143509.00265   243.50582   287.99542     0.00778
      2139 143623.80985   168.12888   209.57655     0.01068
      2140 143738.70890   124.73238   170.38887     0.01312
      2141 143853.69986   100.58357   111.89803     0.01997
      2142 143968.78282    86.98054    88.25853     0.02529
      2143 144083.95785    78.80105    89.69953     0.02486
      2144 144199.22502    73.36282    72.74813     0.03061
      2145 144314.58440    69.37514    66.10882     0.03364
      2146 144430.03606    66.24054    66.21896     0.03352
      2147 144545.58009    63.67429    66.79280     0.03317
      2148 144661.21656    61.52544    59.69067     0.03705
      2149 144776.94553    59.70135    59.81636     0.03689
      2150 144892.76709    58.13774    62.21844     0.03539
      2151 145008.68130    56.78699    49.61332     0.04428
      2152 145124.68825    55.61233    56.11076     0.03907
      2153 145240.78800    54.58324    46.63207     0.04691
      2154 145356.98063    53.67626    55.43315     0.03938
      2155 145473.26621    52.87249    48.65512     0.04478
      2156 145589.64482    52.15648    51.03967     0.04261
      2157 145706.11654    51.51556    54.80444     0.03962
      2158 145822.68143    50.93926    46.58067     0.04655
      2159 145939.33958    50.41886    41.56101     0.05210
      2160 146056.09105    49.94704    47.62162     0.04542
      2161 146172.93592    49.51764    53.23309     0.04058
      2162 146289.87427    49.12546    44.95682     0.04799
      2163 146406.90617    48.76604    51.05070     0.04221
      2164 146524.03170    48.43559    49.73166     0.04326
      2165 146641.25092    48.13083    50.74311     0.04233
      2166 146758.56392    47.84895    52.69768     0.04069
      2167 146875.97077    47.58749    46.72319     0.04581
      2168 146993.47155    47.34433    54.30760     0.03933
      2169 147111.06633    47.11761    47.85416     0.04454
      2170 147228.75518    46.90569    45.13906     0.04712
      2171 147346.53818    46.70722    40.05967     0.05297
      2172 147464.41541    46.52096    57.16330     0.03703
      2173 147582.38695    46.34567    47.83232     0.04414
      2174 147700.45286    46.18034    50.80031     0.04146
      2175 147818.61322    46.02412    49.97634     0.04204
      2176 147936.86811    45.87620    46.28493     0.04528
      2177 148055.21760    45.73589    43.05134     0.04856
      2178 148173.66178    45.60256    43.63378     0.04780
      2179 148292.20071    45.47564    45.17379     0.04606
      2180 148410.83447    45.35462    44.78485     0.04637
      2181 148529.56314    45.23904    43.41633     0.04775
      2182 148648.38679    45.12848    46.37619     0.04464
      2183 148767.30550    45.02258    44.97566     0.04598
      2184 148886.31934    44.92101    52.27110     0.03953
      2185 149005.42840    44.82348    43.09712     0.04792
      2186 149124.63274    44.72965    46.01354     0.04487
      2187 149243.93244    44.63927    46.98294     0.04394
      2188 149363.32759    44.55209    49.88137     0.04140
      2189 149482.81825    44.46790    48.41588     0.04266
      2190 149602.40451    44.38651    48.40119     0.04269
      2191 149722.08643    44.30774    48.86979     0.04229
      2192 149841.86410    44.23141    50.78983     0.04070
      2193 149961.73759    44.15737    39.65371     0.05215
      2194 150081.70698    44.08549    50.76430     0.04074
      2195 150201.77235    44.01567    48.82220     0.04237
      2196 150321.93376    43.94775    51.23434     0.04038
      2197 150442.19131    43.88160    40.60059     0.05096
      2198 150562.54506    43.81714    48.33875     0.04280
      2199 150682.99510    43.75426    44.96389     0.04600
      2200 150803.54150    43.69288    52.71348     0.03923
      2201 150924.18433    43.63291    44.98822     0.04595
      2202 151044.92368    43.57428    48.86945     0.04229
      2203 151165.75962    43.51692    42.10129     0.04908
      2204 151286.69222    43.46078    39.68282     0.05207
      2205 151407.72158    43.40577    45.97041     0.04495
      2206 151528.84776    43.35184    43.54382     0.04747
      2207 151650.07083    43.29893    46.92012     0.04406
      2208 151771.39089    43.24699    47.87562     0.04319
      2209 151892.80800    43.19597    50.28267     0.04113
      2210 152014.32225    43.14583    43.99093     0.04702
      2211 152135.93371    43.09653    34.31978     0.06028
      2212 152257.64245    43.04805    35.76802     0.05784
      2213 152379.44857    43.00033    43.49952     0.04756
      2214 152501.35213    42.95333    42.04805     0.04921
      2215 152623.35321    42.90703    50.74782     0.04077
      2216 152745.45189    42.86139    56.06776     0.03690
      2217 152867.64825    42.81638    46.89113     0.04412
      2218 152989.94237    42.77198    46.41846     0.04455
      2219 153112.33433    42.72818    45.94942     0.04499
      2220 153234.82419    42.68494    43.54768     0.04746
      2221 153357.41205    42.64223    45.98672     0.04492
      2222 153480.09798    42.60004    47.94590     0.04307
      2223 153602.88206    42.55833    43.61144     0.04732
      2224 153725.76437    42.51711    42.18670     0.04888
      2225 153848.74498    42.47634    41.25282     0.04995
      2226 153971.82397    42.43602    48.10045     0.04279
      2227 154095.00143    42.39613    37.46163     0.05487
      2228 154218.27743    42.35664    39.46908     0.05200
      2229 154341.65206    42.31754    32.70362     0.06264
      2230 154465.12538    42.27882    38.14293     0.05361
      2231 154588.69748    42.02895    50.95473     0.04006
      2232 154712.36844    41.75321    37.80034     0.05389
      2233 154836.13833    41.68759    44.27085     0.04592
      2234 154960.00724    41.65336    42.88304     0.04731
      2235 155083.97525    41.62455    41.49256     0.04879
      2236 155208.04243    41.59704    35.64584     0.05666
      2237 155332.20886    41.56957    38.21611     0.05272
      2238 155456.47463    41.54215    43.29755     0.04641
      2239 155580.83981    41.51477    34.44202     0.05817
      2240 155705.30448    41.48743    39.05982     0.05113
      2241 155829.86872    41.46014    34.67128     0.05740
      2242 155954.53262    41.43290    36.81303     0.05387
      2243 156079.29624    41.40570    38.46891     0.05136
      2244 156204.15968    41.37855    42.17286     0.04667
      2245 156329.12301    41.35145    41.31360     0.04746
      2246 156454.18631    41.32439    44.02445     0.04437
      2247 156579.34966    41.29739    36.98318     0.05264
      2248 156704.61314    41.27043    39.67363     0.04892
      2249 156829.97683    41.24353    38.23236     0.05063
      2250 156955.44081    41.21668    42.46449     0.04547
      2251 157081.00516    41.18988    47.21326     0.04082
      2252 157206.66996    41.16313    47.27700     0.04071
      2253 157332.43530    41.13644    35.87648     0.05361
      2254 157458.30125    41.10980    46.28806     0.04154
      2255 157584.26789    41.08322    47.31649     0.04065
      2256 157710.33530    41.05669    49.36033     0.03899
      2257 157836.50357    41.03022    39.96055     0.04822
      2258 157962.77278    41.00381    41.96884     0.04599
      2259 158089.14299    40.97746    39.81601     0.04857
      2260 158215.61431    40.95117    38.68894     0.05011
      2261 158342.18680    40.92493    54.53203     0.03565
      2262 158468.86055    40.89876    45.65090     0.04271
      2263 158595.63564    40.87265    42.43916     0.04608
      2264 158722.51215    40.84661    36.18397     0.05423
      2265 158849.49016    40.82062    44.69653     0.04405
      2266 158976.56975    40.79470    44.03766     0.04486
      2267 159103.75100    40.76885    45.90416     0.04319
      2268 159231.03400    40.74306    36.69766     0.05421
      2269 159358.41883    40.71734    39.57814     0.05043
      2270 159485.90557    40.69169    29.45804     0.06799
      2271 159613.49429    40.66610    40.80381     0.04925
      2272 159741.18509    40.64059    46.12389     0.04372
      2273 159868.97803    40.61515    33.61611     0.06017
      2274 159996.87322    40.58977    41.89080     0.04844
      2275 160124.87072    40.56447    46.68524     0.04359
      2276 160252.97061    40.53924    41.17251     0.04955
      2277 160381.17299    40.51409    42.05528     0.04862
      2278 160509.47793    40.48901    31.72092     0.06460
      2279 160637.88551    40.46400    42.86749     0.04789
      2280 160766.39582    40.43908    41.82554     0.04916
      2281 160895.00893    40.41423    40.79302     0.05048
      2282 161023.72494    40.38945    47.52633     0.04339
      2283 161152.54392    40.36476    41.64993     0.04958
      2284 161281.46596    40.34015    36.75456     0.05626
      2285 161410.49113    40.31562    46.83893     0.04421
      2286 161539.61952    40.29117    35.67385     0.05815
      2287 161668.85122    40.26680    38.49721     0.05398
      2288 161798.18630    40.24252    39.86366     0.05223
      2289 161927.62485    40.21832    35.94622     0.05804
      2290 162057.16695    40.19420    42.08033     0.04970
      2291 162186.81268    40.17018    34.34156     0.06105
      2292 162316.56213    40.14624    40.90288     0.05140
      2293 162446.41538    40.12239    39.82772     0.05296
      2294 162576.37251    40.09863    39.22106     0.05396
      2295 162706.43361    40.07496    34.84104     0.06096
      2296 162836.59876    40.05138    44.55545     0.04785
      2297 162966.86804    40.02789    38.77119     0.05522
      2298 163097.24153    40.00450    46.05696     0.04667
      2299 163227.71932    39.98120    34.28751     0.06294
      2300 163358.30150    39.95800    51.69038     0.04192
      2301 163488.98814    39.93489    34.94248     0.06225
      2302 163619.77933    39.91189    44.43623     0.04912
      2303 163750.67516    39.88898    37.43614     0.05851
      2304 163881.67570    39.86616    41.41146     0.05306
      2305 164012.78104    39.84345    34.48169     0.06392
      2306 164143.99126    39.82084    38.91079     0.05680
      2307 164275.30645    39.79834    40.61782     0.05455
      2308 164406.72670    39.77593    36.92368     0.06015
      2309 164538.25208    39.75364    32.35617     0.06877
      2310 164669.88268    39.73144    38.13152     0.05846
      2311 164801.61859    39.70936    40.31262     0.05538
      2312 164933.45988    39.68738    41.60127     0.05374
      2313 165065.40665    39.66551    36.19381     0.06183
      2314 165197.45898    39.64375    48.21701     0.04645
      2315 165329.61694    39.62210    43.27898     0.05179
      2316 165461.88064    39.60056    36.12629     0.06206
      2317 165594.25014    39.57914    41.91996     0.05349
      2318 165726.72554    39.55783    41.92820     0.05347
      2319 165859.30692    39.53664    45.07134     0.04972
      2320 165991.99437    39.51556    38.40257     0.05831
      2321 166124.78796    39.49460    38.43088     0.05823
      2322 166257.68779    39.47376    42.48330     0.05264
      2323 166390.69394    39.45304    40.27231     0.05549
      2324 166523.80650    39.43244    39.39570     0.05670
      2325 166657.02554    39.41196    38.51228     0.05798
      2326 166790.35116    39.39160    39.86224     0.05601
      2327 166923.78345    39.37137    38.51871     0.05796
      2328 167057.32247    39.35126    39.85522     0.05603
      2329 167190.96833    39.33129    44.76464     0.04990
      2330 167324.72110    39.31143    41.16154     0.05430
      2331 167458.58088    39.29171    33.98017     0.06582
      2332 167592.54775    39.27212    45.12205     0.04961
      2333 167726.62178    39.25266    41.51048     0.05397
      2334 167860.80308    39.23333    33.88840     0.06618
      2335 167995.09172    39.21414    36.07840     0.06223
      2336 168129.48780    39.19508    39.15095     0.05741
      2337 168263.99139    39.17615    43.99134     0.05116
      2338 168398.60258    39.15737    42.60340     0.05289
      2339 168533.32146    39.13872    42.54441     0.05304
      2340 168668.14812    39.12021    39.38217     0.05738
      2341 168803.08264    39.10185    45.05792     0.05024
      2342 168938.12511    39.08362    38.79955     0.05846
      2343 169073.27561    39.06554    36.95697     0.06150
      2344 169208.53423    39.04761    43.45234     0.05243
      2345 169343.90105    39.02982    38.52303     0.05930
      2346 169479.37617    39.01217    39.28849     0.05831
      2347 169614.95967    38.99468    37.86879     0.06067
      2348 169750.65164    38.97733    44.70155     0.05155
      2349 169886.45216    38.96014    39.81152     0.05805
      2350 170022.36133    38.94310    38.83565     0.05967
      2351 170158.37921    38.92621    42.17307     0.05510
      2352 170294.50592    38.90948    39.48982     0.05900
      2353 170430.74152    38.89290    37.68144     0.06198
      2354 170567.08612    38.87648    44.00337     0.05319
      2355 170703.53979    38.86022    38.36633     0.06114
      2356 170840.10262    38.84413    42.54215     0.05525
      2357 170976.77470    38.82819    47.13072     0.04997
      2358 171113.55612    38.81241    44.92665     0.05252
      2359 171250.44696    38.79680    32.15809     0.07349
      2360 171387.44732    38.78136    42.24868     0.05602
      2361 171524.55728    38.76608    32.90811     0.07203
      2362 171661.77692    38.75097    44.66532     0.05313
      2363 171799.10635    38.73603    42.93248     0.05534
      2364 171936.54563    38.72126    39.10759     0.06081
      2365 172074.09487    38.70666    37.39650     0.06364
      2366 172211.75414    38.69224    41.99210     0.05671
      2367 172349.52355    38.67799    35.67630     0.06678
      2368 172487.40317    38.66392    37.34349     0.06382
      2369 172625.39309    38.65003    41.11347     0.05798
      2370 172763.49340    38.63632    41.95115     0.05682
      2371 172901.70420    38.62279    39.85575     0.05981
      2372 173040.02556    38.60944    39.44179     0.06042
      2373 173178.45758    38.59627    43.64712     0.05459
      2374 173317.00035    38.58329    41.97979     0.05674
      2375 173455.65395    38.57050    34.43433     0.06916
      2376 173594.41847    38.55789    36.12629     0.06589
      2377 173733.29401    38.54548    37.81913     0.06292
      2378 173872.28064    38.53325    47.07738     0.05054
      2379 174011.37847    38.52122    42.04286     0.05657
      2380 174150.58757    38.50938    40.36801     0.05891
      2381 174289.90804    38.49774    42.05495     0.05654
      2382 174429.33996    38.48630    45.00107     0.05284
      2383 174568.88344    38.47505    44.99907     0.05284
      2384 174708.53854    38.46400    41.20700     0.05771
      2385 174848.30537    38.45316    39.93303     0.05957
      2386 174988.18402    38.44252    48.31855     0.04926
      2387 175128.17457    38.43208    47.87161     0.04974
      2388 175268.27711    38.42185    40.28593     0.05915
      2389 175408.49173    38.41183    46.54511     0.05124
      2390 175548.81852    38.40202    35.19344     0.06782
      2391 175689.25758    38.39242    36.83436     0.06486
      2392 175829.80898    38.38303    38.46884     0.06217
      2393 175970.47283    38.37386    43.02211     0.05565
      2394 176111.24921    38.36490    37.96955     0.06312
      2395 176252.13821    38.35616    40.84896     0.05873
      2396 176393.13992    38.34764    42.06002     0.05709
      2397 176534.25443    38.33934    45.35422     0.05299
      2398 176675.48183    38.33126    46.15580     0.05210
      2399 176816.82222    38.32341    37.82056     0.06362
      2400 176958.27568    38.31578    39.46822     0.06099
      2401 177099.84230    38.30838    39.87317     0.06038
      2402 177241.52217    38.30121    32.39276     0.07434
      2403 177383.31539    38.29427    39.03843     0.06168
      2404 177525.22204    38.28756    36.96804     0.06512
      2405 177667.24222    38.28108    44.87271     0.05364
      2406 177809.37601    38.27484    40.31747     0.05967
      2407 177951.62351    38.26884    45.74165     0.05257
      2408 178093.98481    38.26308    51.59021     0.04659
      2409 178236.46000    38.25756    45.79040     0.05246
      2410 178379.04917    38.25228    40.39938     0.05943
      2411 178521.75241    38.24725    37.49976     0.06400
      2412 178664.56981    38.24246    39.59523     0.06060
      2413 178807.50146    38.23792    44.60561     0.05378
      2414 178950.54747    38.23363    42.52687     0.05640
      2415 179093.70790    38.22959    36.69423     0.06536
      2416 179236.98287    38.22580    42.12138     0.05693
      2417 179380.37246    38.22227    28.36498     0.08452
      2418 179523.87675    38.21900    39.63961     0.06046
      2419 179667.49586    38.21598    34.64632     0.06915
      2420 179811.22985    38.21322    39.67395     0.06035
      2421 179955.07884    38.21073    42.61811     0.05616
      2422 180099.04290    38.20850    39.71201     0.06024
      2423 180243.12213    38.20654    49.34647     0.04846
      2424 180387.31663    38.20484    47.27025     0.05057
      2425 180531.62648    38.20342    43.09723     0.05545
      2426 180676.05179    38.20226    38.50167     0.06206
      2427 180820.59263    38.20138    38.92551     0.06138
      2428 180965.24910    38.20078    37.67373     0.06341
      2429 181110.02130    38.20045    39.77072     0.06006
      2430 181254.90932    38.20040    34.33368     0.06956
      2431 181399.91324    38.20063    38.11231     0.06265
      2432 181545.03318    38.20115    41.90017     0.05696
      2433 181690.26920    38.20195    46.53911     0.05125
      2434 181835.62142    38.20303    40.28468     0.05915
      2435 181981.08991    38.20441    46.62929     0.05105
      2436 182126.67479    38.20607    47.10954     0.05047
      2437 182272.37613    38.20803    44.65149     0.05317
      2438 182418.19403    38.21028    36.28715     0.06531
      2439 182564.12858    38.21283    40.58259     0.05829
      2440 182710.17988    38.21568    41.51518     0.05686
      2441 182856.34803    38.21883    43.31199     0.05437
      2442 183002.63311    38.22228    39.16997     0.05996
      2443 183149.03521    38.22604    38.43216     0.06093
      2444 183295.55444    38.23010    48.41132     0.04822
      2445 183442.19089    38.23447    44.71423     0.05202
      2446 183588.94464    38.23915    41.43359     0.05592
      2447 183735.81579    38.24415    41.60478     0.05546
      2448 183882.80445    38.24946    37.43516     0.06137
      2449 184029.91069    38.25508    42.42057     0.05390
      2450 184177.13462    38.26103    44.82728     0.05076
      2451 184324.47633    38.26730    44.61818     0.05073
      2452 184471.93591    38.27389    39.08590     0.05760
      2453 184619.51346    38.28080    44.66414     0.05013
      2454 184767.20907    38.28805    48.06216     0.04632
      2455 184915.02283    38.29562    40.65593     0.05445
      2456 185062.95485    38.30353    46.33490     0.04751
      2457 185211.00522    38.31177    43.39066     0.05046
      2458 185359.17402    38.32034    44.07860     0.04941
      2459 185507.46136    38.32926    35.99496     0.06020
      2460 185655.86733    38.33851    45.44214     0.04746
      2461 185804.39202    38.34811    45.64897     0.04703
      2462 185953.03554    38.35805    45.37734     0.04711
      2463 186101.79796    38.36834    33.81894     0.06295
      2464 186250.67940    38.37898    44.79400     0.04735
      2465 186399.67995    38.38997    45.90535     0.04603
      2466 186548.79969    38.40131    38.47053     0.05473
      2467 186698.03873    38.41301    34.31725     0.06114
      2468 186847.39716    38.42507    48.31074     0.04327
      2469 186996.87508    38.43749    42.24442     0.04931
      2470 187146.47258    38.45028    43.84558     0.04734
      2471 187296.18976    38.46343    45.46175     0.04548
      2472 187446.02671    38.47694    40.78122     0.05051
      2473 187595.98353    38.49083    38.01510     0.05397
      2474 187746.06032    38.50509    37.67332     0.05425
      2475 187896.25717    38.51972    41.74731     0.04877
      2476 188046.57417    38.53473    38.94571     0.05208
      2477 188197.01143    38.55012    31.16872     0.06485
      2478 188347.56904    38.56589    33.75438     0.05968
      2479 188498.24709    38.58205    36.84526     0.05451
      2480 188649.04569    38.59859    32.95414     0.06077
      2481 188799.96493    38.61553    38.54492     0.05183
      2482 188951.00490    38.63285    46.66499     0.04271
      2483 189102.16570    38.65057    27.15702     0.07322
      2484 189253.44744    38.66868    46.36814     0.04279
      2485 189404.85020    38.68719    35.86003     0.05521
      2486 189556.37408    38.70611    36.94809     0.05347
      2487 189708.01917    38.72543    40.57801     0.04859
      2488 189859.78559    38.74515    40.15961     0.04898
      2489 190011.67342    38.76528    37.19561     0.05276
      2490 190163.68276    38.78583    45.97055     0.04259
      2491 190315.81370    38.80679    39.43443     0.04952
      2492 190468.06635    38.82816    34.41133     0.05658
      2493 190620.44081    38.84995    29.36576     0.06610
      2494 190772.93716    38.87217    37.73266     0.05127
      2495 190925.55551    38.89481    47.20064     0.04085
      2496 191078.29595    38.91787    30.19368     0.06362
      2497 191231.15859    38.94137    35.01095     0.05466
      2498 191384.14352    38.96530    38.82057     0.04910
      2499 191537.25083    38.98966    38.97797     0.04871
      2500 191690.48063    39.01446    38.61190     0.04896
      2501 191843.83302    39.03970    34.52794     0.05452
      2502 191997.30808    39.06538    43.21680     0.04337
      2503 192150.90593    39.09150    27.33458     0.06826
      2504 192304.62666    39.11808    47.92601     0.03875
      2505 192458.47036    39.14510    44.37048     0.04165
      2506 192612.43713    39.17258    48.39758     0.03800
      2507 192766.52708    39.20051    40.44498     0.04524
      2508 192920.74030    39.22891    40.10455     0.04539
      2509 193075.07690    39.25776    38.10529     0.04752
      2510 193229.53696    39.28708    42.19123     0.04269
      2511 193384.12059    39.31686    44.08619     0.04065
      2512 193538.82788    39.34712    47.12035     0.03783
      2513 193693.65895    39.37785    45.10812     0.03932
      2514 193848.61387    39.40905    40.80575     0.04324
      2515 194003.69277    39.44073    45.57183     0.03852
      2516 194158.89572    39.47289    40.07885     0.04358
      2517 194314.22284    39.50554    38.55751     0.04507
      2518 194469.67421    39.53867    32.39373     0.05337
      2519 194625.24995    39.57229    38.37716     0.04481
      2520 194780.95015    39.60641    43.25253     0.03956
      2521 194936.77491    39.64102    41.12336     0.04139
      2522 195092.72433    39.67612    38.37513     0.04414
      2523 195248.79851    39.71173    48.04969     0.03508
      2524 195404.99755    39.74785    37.54226     0.04470
      2525 195561.32155    39.78447    41.89288     0.03989
      2526 195717.77061    39.82160    48.67289     0.03419
      2527 195874.34482    39.85924    34.38373     0.04821
      2528 196031.04430    39.89740    36.32746     0.04547
      2529 196187.86913    39.93608    34.63414     0.04752
      2530 196344.81943    39.97528    44.50909     0.03685
      2531 196501.89529    40.01501    38.54072     0.04241
      2532 196659.09680    40.05526    38.66730     0.04214
      2533 196816.42408    40.09605    37.56145     0.04324
      2534 196973.87722    40.13736    33.35824     0.04853
      2535 197131.45632    40.17922    42.76057     0.03774
      2536 197289.16149    40.22162    39.78569     0.04043
      2537 197446.99281    40.26456    38.03393     0.04217
      2538 197604.95041    40.30805    44.39354     0.03603
      2539 197763.03437    40.35208    49.52655     0.03221
      2540 197921.24480    40.39667    43.36676     0.03669
      2541 198079.58179    40.44182    46.62366     0.03404
      2542 198238.04546    40.48753    51.78894     0.03057
      2543 198396.63589    40.53379    36.08582     0.04377
      2544 198555.35320    40.58063    37.44118     0.04209
      2545 198714.19749    40.62803    48.34626     0.03252
      2546 198873.16884    40.67601    29.97397     0.05231
      2547 199032.26738    40.72456    36.44858     0.04291
      2548 199191.49319    40.77369    43.60701     0.03576
      2549 199350.84639    40.82340    43.74212     0.03554
      2550 199510.32706    40.87369    40.66364     0.03810
      2551 199669.93533    40.92458    38.22484     0.04038
      2552 199829.67127    40.97606    42.28592     0.03635
      2553 199989.53501    41.02813    41.16961     0.03717
      2554 200149.52664    41.08080    38.74219     0.03931
      2555 200309.64626    41.13407    35.63948     0.04251
      2556 200469.89398    41.18795    38.48144     0.03917
      2557 200630.26989    41.24244    30.68603     0.04885
      2558 200790.77411    41.29754    38.23834     0.03898
      2559 200951.40673    41.35325    36.43660     0.04067
      2560 201112.16785    41.40959    39.37021     0.03742
      2561 201273.05759    41.46654    29.36873     0.04985
      2562 201434.07603    41.52413    37.11747     0.03920
      2563 201595.22329    41.58234    45.66616     0.03165
      2564 201756.49947    41.64118    34.83300     0.04121
      2565 201917.90467    41.70067    30.87065     0.04617
      2566 202079.43900    41.76079    38.16367     0.03708
      2567 202241.10255    41.82155    49.12991     0.02859
      2568 202402.89543    41.88297    37.30722     0.03736
      2569 202564.81775    41.94503    38.31756     0.03610
      2570 202726.86960    42.00775    32.78821     0.04186
      2571 202889.05110    42.07112    48.47106     0.02809
      2572 203051.36234    42.13516    39.97652     0.03379
      2573 203213.80343    42.19987    47.76171     0.02806
      2574 203376.37447    42.26524    41.37577     0.03213
      2575 203539.07557    42.33128    40.19103     0.03281
      2576 203701.90683    42.39800    38.21781     0.03423
      2577 203864.86835    42.46540    36.20748     0.03585
      2578 204027.96025    42.53349    37.26699     0.03456
      2579 204191.18262    42.60226    46.16634     0.02768
      2580 204354.53556    42.67173    33.12368     0.03828
      2581 204518.01919    42.74189    37.36315     0.03367
      2582 204681.63361    42.81274    42.47587     0.02938
      2583 204845.37891    42.88430    35.55842     0.03480
      2584 205009.25522    42.95657    43.20275     0.02840
      2585 205173.26262    43.02955    47.70081     0.02549
      2586 205337.40123    43.10324    46.48004     0.02592
      2587 205501.67115    43.17765    49.43543     0.02414
      2588 205666.07249    43.25278    44.84289     0.02636
      2589 205830.60535    43.32864    39.31203     0.02977
      2590 205995.26983    43.40523    36.26472     0.03194
      2591 206160.06605    43.48255    44.50337     0.02575
      2592 206324.99410    43.56061    48.51647     0.02337
      2593 206490.05410    43.63941    43.70313     0.02565
      2594 206655.24614    43.71896    54.11164     0.02049
      2595 206820.57034    43.79925    44.68100     0.02454
      2596 206986.02679    43.88030    45.16097     0.02403
      2597 207151.61561    43.96211    40.95827     0.02623
      2598 207317.33691    44.04468    46.95201     0.02268
      2599 207483.19078    44.12802    45.39076     0.02330
      2600 207591.26812    44.18270     9.50034     0.11080      
	

