##############################################################################
#                                                                            #
# This CIF contains the data in a paper accepted for publication in Acta     #
# Crystallographica Section B. It has been peer reviewed under the auspices  #
# of the IUCr Commission on Journals.                                        #
#                                                                            #
# Full details of the Crystallographic Information File format               #
# are given in the paper "The Crystallographic Information File (CIF):       #
# a New Standard Archive File for Crystallography" by S. R. Hall, F. H.      #
# Allen and I. D. Brown [Acta Cryst. (1991), A47, 655-685].                  #
#                                                                            #
# The current version of the core CIF dictionary may be obtained from        #
# ftp://ftp.iucr.org/pub/cif_core.dic. The current version number is 2.4.    #
#                                                                            #
# Software is freely available for graphical display of the structure(s) in  #
# this CIF.  For information consult the CIF home page http://www.iucr.org/  #
# cif/home.html                                                              #
#                                                                            #
# This file may be used for bona fide research purposes within the           #
# scientific community so long as proper attribution is given to the journal # 
# article from which it was obtained.                                        #
#                                                                            #
##############################################################################

data_global
_journal_data_validation_number     ?
_journal_date_recd_electronic     2009-05-04
_journal_date_accepted     2009-11-09
_journal_name_full     'Acta Crystallographica, Section B'
_journal_year     2010
_journal_volume     66
_journal_issue      1
_journal_page_first     76
_journal_page_last     80
_journal_paper_category     FA
_journal_coeditor_code     WS5072
_publ_contact_author_name     'Patrick Derollez'
_publ_contact_author_address
;
Laboratoire de Dynamique et Structure des Mat\'eriaux Mol\'eculaires.
UFR de Physique, Universit\'e Lille 1, Sciences et Technologies.
59655 Villeneuve d'Ascq Cedex, France.
;
_publ_contact_author_email     'Patrick.Derollez@univ-lille1.fr'
_publ_contact_author_fax     ?
_publ_contact_author_phone     ?
_publ_section_title
;
Ab <i>initio</i> structure determination of the phase II of racemic ibuprofen by
X-ray powder diffraction.
;
_publ_section_title_footnote     .
loop_
    _publ_author_name
    _publ_author_address
    'Derollez, Patrick'
;
Laboratoire de Dynamique et Structure des Mat\'eriaux Mol\'eculaires.
UFR de Physique, Universit\'e Lille 1, Sciences et Technologies.
59655 Villeneuve d'Ascq Cedex, France.
;
    'Dudognon, Emeline'
;
Laboratoire de Dynamique et Structure des Mat\'eriaux Mol\'eculaires.
UFR de Physique, Universit\'e Lille 1, Sciences et Technologies.
59655 Villeneuve d'Ascq Cedex, France.
;
    'Affouard, Fr\'ed\'eric'
;
Laboratoire de Dynamique et Structure des Mat\'eriaux Mol\'eculaires.
UFR de Physique, Universit\'e Lille 1, Sciences et Technologies.
59655 Villeneuve d'Ascq Cedex, France.
;
    'Dan\'ede, Florence'
;
Laboratoire de Dynamique et Structure des Mat\'eriaux Mol\'eculaires.
UFR de Physique, Universit\'e Lille 1, Sciences et Technologies.
59655 Villeneuve d'Ascq Cedex, France.
;
    'Correia, Nat\'alia T.'
;
REQUIMTE, Departamento de Quimica, Faculdade de Ci\^encias e Tecnologia
da Universidade Nova de Lisboa, 2829-516 Caparica, Portugal.
;
    'Descamps, Marc'
;
Laboratoire de Dynamique et Structure des Mat\'eriaux Mol\'eculaires.
UFR de Physique, Universit\'e Lille 1, Sciences et Technologies.
59655 Villeneuve d'Ascq Cedex, France.
;
_publ_section_synopsis     .
data_ibuprofen
_pd_block_id  ibuprofen
_pd_block_diffractogram_id     ibuprofen_pattern
_chemical_name_systematic
; ?
;
_chemical_name_common     'ibuprofen'
_chemical_formula_moiety     'C13 H18 O2'
_chemical_formula_sum     ?
_chemical_formula_structural     ?
_chemical_formula_analytical     ?
_chemical_formula_iupac     ?
_chemical_formula_weight     206.28
_chemical_melting_point     ?
_symmetry_cell_setting     Monoclinic
_symmetry_space_group_name_H-M     'P 21/c'
_symmetry_space_group_name_Hall     '-P 2ybc'
loop_
    _symmetry_equiv_pos_as_xyz
    'x,y,z'
    '-x,y+1/2,-z+1/2'
    '-x,-y,-z'
    'x,-y+1/2,z+1/2'
_cell_length_a     12.3794(9)
_cell_length_b     5.8723(5)
_cell_length_c     17.5615(15)
_cell_angle_alpha     90.00000
_cell_angle_beta     94.873(4)
_cell_angle_gamma     90.00000
_cell_volume     1272.03(18)
_cell_formula_units_Z     4
_cell_measurement_temperature     258
_cell_special_details
; ?
;
_exptl_crystal_density_diffrn     1.077
_pd_char_colour     white
_pd_char_particle_morphology     ?
_exptl_absorpt_coefficient_mu     0.562
_exptl_absorpt_correction_type     ?
_exptl_absorpt_process_details     ?
_exptl_absorpt_correction_T_min     ?
_exptl_absorpt_correction_T_max     ?
_exptl_special_details
; ?
;
_diffrn_ambient_temperature     ?
_diffrn_radiation_type     'X-ray'
_diffrn_radiation_wavelength     1.540560
_diffrn_radiation_monochromator     ?
_diffrn_measurement_device_type     'Inel CPS120'
_diffrn_measurement_method     ?
_diffrn_detector_area_resol_mean     ?
_pd_instr_location
; ?
;
_pd_meas_2theta_range_min     0.15300
_pd_meas_2theta_range_max     113.82300
_pd_meas_2theta_range_inc     0.015002
_pd_meas_number_of_points     7579
_pd_meas_scan_method     'fixed'
_pd_meas_special_details
;  ?
;
_refine_special_details
; ?
;
_refine_ls_goodness_of_fit_all     20.1
_refine_ls_number_reflns     2063
_refine_ls_number_parameters     59
_refine_ls_number_restraints     35
loop_
    _atom_type_symbol
    _atom_type_scat_dispersion_real
    _atom_type_scat_dispersion_imag
    _atom_type_scat_source
    c 0.01700 0.00900
 International_Tables_for_Crystallography_Vol.C(1991)_Tables_6.1.1.4_and_6.1.1.5
    o 0.04700 0.03200
 International_Tables_for_Crystallography_Vol.C(1991)_Tables_6.1.1.4_and_6.1.1.5
    h 0.00000 0.00000
 International_Tables_for_Crystallography_Vol.C(1991)_Tables_6.1.1.4_and_6.1.1.5
_computing_data_collection     ?
_computing_structure_solution     ?
_computing_structure_refinement     FULLPROF
_computing_molecular_graphics     ?
_computing_publication_material     ?
_pd_calibration_special_details
; ?
;
_pd_prep_cool_rate     ?
_pd_prep_pressure     ?
_pd_prep_temperature     ?
_pd_proc_2theta_range_min     0.2092
_pd_proc_2theta_range_max     113.8792
_pd_proc_2theta_range_inc     0.015002
_pd_proc_info_data_reduction     ?
_pd_proc_info_excluded_regions     ?
_pd_proc_ls_background_function
                                  'linear interpolation between selected points'
_pd_proc_ls_pref_orient_corr
; ?
;
_pd_proc_ls_prof_R_factor     0.040009
_pd_proc_ls_prof_wR_factor     0.056337
_pd_proc_ls_prof_wR_expected     0.12564
_pd_proc_ls_profile_function     pseudo-Voigt
_pd_proc_ls_special_details
; ?
;
_pd_proc_wavelength     1.540560
_pd_spec_mount_mode     'transmission'
_pd_spec_mounting
; 0.7 mm diameter Lindemann capillary
;
_pd_spec_shape     'cylinder'
_pd_spec_size_axial     ?
_pd_spec_size_equat     ?
_pd_spec_size_thick     ?
loop_
    _atom_site_type_symbol
    _atom_site_label
    _atom_site_fract_x
    _atom_site_fract_y
    _atom_site_fract_z
    _atom_site_U_iso_or_equiv
    _atom_site_adp_type
    _atom_site_occupancy
    C C1 0.5572(6) 0.6766(19) 0.4158(4) 0.00000 Uiso 1.00000
    C C2 0.6059(6) 0.8680(12) 0.3731(4) 0.00000 Uiso 1.00000
    C C3 0.6963(8) 0.967(2)   0.4240(6) 0.00000 Uiso 1.00000
    C C4 0.6641(11) 0.734(4)   0.3179(5) 0.00000 Uiso 1.00000
    C C5 0.7604(12) 0.631(4)   0.3441(7) 0.00000 Uiso 1.00000
    C C6 0.8130(12) 0.489(3)   0.2963(5) 0.00000 Uiso 1.00000
    C C7 0.7692(11) 0.450(3)   0.2225(6) 0.00000 Uiso 1.00000
    C C8 0.6729(11) 0.554(3)   0.1962(6) 0.00000 Uiso 1.00000
    C C9 0.6204(11) 0.696(3)   0.2439(5) 0.00000 Uiso 1.00000
    C C10 0.8061(12) 0.2511(11) 0.1767(6) 0.00000 Uiso 1.00000
    C C11 0.8511(5) 0.3890(10) 0.1113(4) 0.00000 Uiso 1.00000
    C C12 0.9146(10) 0.1809(16) 0.0890(7) 0.00000 Uiso 1.00000
    C C13 0.9565(7) 0.507(2)   0.1420(7) 0.00000 Uiso 1.00000
    O O1 0.6004(8) 0.6812(17) 0.4845(4) 0.00000 Uiso 1.00000
    O O2 0.4615(5) 0.6338(17) 0.4159(5) 0.00000 Uiso 1.00000
    H H1 0.54252 0.59460 0.51577 0.00000 Uiso 1.00000
    H H2 0.54247 0.95211 0.34572 0.00000 Uiso 1.00000
    H H3 0.69457 0.93109 0.47765 0.00000 Uiso 1.00000
    H H4 0.76245 0.93109 0.40258 0.00000 Uiso 1.00000
    H H5 0.68509 1.14351 0.42214 0.00000 Uiso 1.00000
    H H6 0.79091 0.64412 0.39829 0.00000 Uiso 1.00000
    H H7 0.88185 0.41905 0.31802 0.00000 Uiso 1.00000
    H H8 0.64266 0.52523 0.14303 0.00000 Uiso 1.00000
    H H9 0.55273 0.76436 0.22148 0.00000 Uiso 1.00000
    H H10 0.75186 0.17634 0.14443 0.00000 Uiso 1.00000
    H H11 0.85372 0.14644 0.21091 0.00000 Uiso 1.00000
    H H12 0.79116 0.42036 0.07230 0.00000 Uiso 1.00000
    H H13 0.97950 0.16131 0.12476 0.00000 Uiso 1.00000
    H H14 0.94623 0.20722 0.04049 0.00000 Uiso 1.00000
    H H15 0.86032 0.06455 0.06744 0.00000 Uiso 1.00000
    H H16 0.99160 0.58868 0.10212 0.00000 Uiso 1.00000
    H H17 0.98938 0.39791 0.18671 0.00000 Uiso 1.00000
    H H18 0.95001 0.64061 0.18671 0.00000 Uiso 1.00000
_geom_special_details     ?
loop_
    _geom_bond_atom_site_label_1
    _geom_bond_atom_site_label_2
    _geom_bond_site_symmetry_1
    _geom_bond_site_symmetry_2
    _geom_bond_distance
    _geom_bond_publ_flag
    ? ? ? ? ? ?
loop_
    _geom_contact_atom_site_label_1
    _geom_contact_atom_site_label_2
    _geom_contact_distance
    _geom_contact_site_symmetry_1
    _geom_contact_site_symmetry_2
    _geom_contact_publ_flag
    ? ? ? ? ? ?
loop_
    _geom_angle_atom_site_label_1
    _geom_angle_atom_site_label_2
    _geom_angle_atom_site_label_3
    _geom_angle_site_symmetry_1
    _geom_angle_site_symmetry_2
    _geom_angle_site_symmetry_3
    _geom_angle
    _geom_angle_publ_flag
    ? ? ? ? ? ? ? ?
loop_
    _geom_torsion_atom_site_label_1
    _geom_torsion_atom_site_label_2
    _geom_torsion_atom_site_label_3
    _geom_torsion_atom_site_label_4
    _geom_torsion_site_symmetry_1
    _geom_torsion_site_symmetry_2
    _geom_torsion_site_symmetry_3
    _geom_torsion_site_symmetry_4
    _geom_torsion
    _geom_torsion_publ_flag
    ? ? ? ? ? ? ? ? ? ?
loop_
    _geom_hbond_atom_site_label_D
    _geom_hbond_atom_site_label_H
    _geom_hbond_atom_site_label_A
    _geom_hbond_site_symmetry_D
    _geom_hbond_site_symmetry_H
    _geom_hbond_site_symmetry_A
    _geom_hbond_distance_DH
    _geom_hbond_distance_HA
    _geom_hbond_distance_DA
    _geom_hbond_angle_DHA
    _geom_hbond_publ_flag
    ? ? ? ? ? ? ? ? ? ? ?
	
#==============================================
# Powder diffraction pattern number  1
#==============================================
 
data_ibuprofen_pattern
 
_pd_block_id  ibuprofen_pattern

loop_
_pd_phase_id
_pd_phase_block_id
1 ibuprofen

#============================================
# 9. INSTRUMENT CHARACTERIZATION                                  
                                                  
_exptl_special_details          
; ?
;                                                  
                                                  
# if regions of the data are excluded, the reason(s) are supplied here:  
_pd_proc_info_excluded_regions                                   
; ?                                                 
;                                                  
                                                  
# The following item is used to identify the equipment used to record    
# the powder pattern when the diffractogram was measured at a laboratory   
# other than the authors' home institution, e.g. when neutron or synchrotron  
# radiation is used.                                        
                                                  
_pd_instr_location                                         
; ?                                                 
;                                                  
_pd_calibration_special_details      # description of the method used  
                     # to calibrate the instrument               
; ?                                                 
;                                                  
                                                  
_diffrn_ambient_temperature    ?                                 
_diffrn_source          'X-ray tube'                                 
_diffrn_source_target       ?                                 
_diffrn_source_type        ?                                 
_diffrn_measurement_device_type  ?                                 
_diffrn_detector         ?                                 
_diffrn_detector_type       'Inel CPS120'                
                                                  
_pd_meas_scan_method       'fixed'                 
_pd_meas_special_details                                      
; ?                                                
;                                                  
                                                  
# The following two items identify the program(s) used (if appropriate).  
_computing_data_collection    ?                                 
_computing_data_reduction     ?                                 
                                                  
# Describe any processing performed on the data, prior to refinement.    
# For example: a manual Lp correction or a precomputed absorption correction  
_pd_proc_info_data_reduction   ?                                 
                                                  
# The following item is used for angular dispersive measurements only.
                                                  
_diffrn_radiation_monochromator  ?                                 
                                                  
# The following items are used to define the size of the instrument.
# Not all distances are appropriate for all instrument types. 
                                                  
_pd_instr_dist_src/mono      ?                                 
_pd_instr_dist_mono/spec     ?                                 
_pd_instr_dist_src/spec      ?                                 
_pd_instr_dist_spec/anal     ?                                 
_pd_instr_dist_anal/detc     ?                                 
_pd_instr_dist_spec/detc     ?                                 
                                                  
# 10. Specimen size and mounting information                            
                                                  
# The next three fields give the specimen dimensions in mm. The equatorial 
# plane contains the incident and diffracted beam.                         
                                                  
_pd_spec_size_axial        ?    # perpendicular to                    
                     # equatorial plane                    
                                                  
_pd_spec_size_equat        ?    # parallel to                       
                     # scattering vector                    
                     # in transmission                     
                                                  
_pd_spec_size_thick        ?    # parallel to                       
                     # scattering vector                    
                     # in reflection                      
                                                  
_pd_spec_mounting             # This field should be                  
                     # used to give details of the               
                     # container.                       
; ?                                                 
;                                                  
                                                  
_pd_spec_mount_mode        'transmission'                    
                                                  
_pd_spec_shape          'cylinder'              
                                                  
   
_diffrn_radiation_probe        'x-ray' 
_diffrn_radiation_wavelength      1.5406
   
# The following profile R-factors are NOT CORRECTED for background
# The sum is extended to all non-excluded points.
# These are the current CIF standard
 
_pd_proc_ls_prof_R_factor        0.040009
_pd_proc_ls_prof_wR_factor        0.056337
_pd_proc_ls_prof_wR_expected    0.12564
 
# The following profile R-factors are CORRECTED for background
# The sum is extended to all non-excluded points.
# These items are not in the current CIF standard, but are defined above
 
_pd_proc_ls_prof_cR_factor        0.138967
_pd_proc_ls_prof_cwR_factor       0.136371
_pd_proc_ls_prof_cwR_expected       0.030412
 
# The following items are not in the CIF standard, but are defined above
 
_pd_proc_ls_prof_chi2        20.1076
_pd_proc_ls_prof_echi2        20.1076
 
_pd_proc_ls_background_function  
;  FullProf Background function number 
;                                                  
                                                  
_exptl_absorpt_process_details                                   
;  FullProf Absorption/surface roughness correction  
 No correction is applied ?.                                     
;                                                  
                                                  
_pd_proc_ls_profile_function                                    
;                                                  
;                                                  
_pd_proc_ls_peak_cutoff 0.00500                                   
_pd_calc_method "  Rietveld Refinement" 
                                                  
#---- raw/calc data loop -----  
_pd_meas_2theta_range_min   0.1530
_pd_meas_2theta_range_max  113.8230
_pd_meas_2theta_range_inc   0.0150
_pd_proc_2theta_range_min   0.2092
_pd_proc_2theta_range_max  113.8792
_pd_proc_2theta_range_inc   0.0150
 
loop_
_pd_proc_point_id
_pd_proc_2theta_corrected  
_pd_proc_intensity_total
_pd_calc_intensity_total
_pd_proc_intensity_bkg_calc
 
  325   5.0692  6679(82)         6768.4961     6720.4746   
  326   5.0842  6596(81)         6770.4604     6721.7437   
  327   5.0992  6566(81)         6772.4404     6723.0132   
  328   5.1142  6651(82)         6774.4360     6724.2827   
  329   5.1292  6638(81)         6776.4478     6725.5518   
  330   5.1442  6604(81)         6778.4761     6726.8213   
  331   5.1592  6689(82)         6780.5210     6728.0903   
  332   5.1742  6714(82)         6782.5845     6729.3599   
  333   5.1892  6705(82)         6784.6650     6730.6289   
  334   5.2042  6737(82)         6786.7651     6731.8984   
  335   5.2192  6812(83)         6788.8843     6733.1675   
  336   5.2342  6735(82)         6791.0234     6734.4370   
  337   5.2492  6678(82)         6793.1826     6735.7061   
  338   5.2642  6704(82)         6795.3633     6736.9756   
  339   5.2792  6701(82)         6797.5659     6738.2451   
  340   5.2942  6688(82)         6799.7910     6739.5142   
  341   5.3092  6697(82)         6802.0396     6740.7837   
  342   5.3242  6835(83)         6804.3115     6742.0527   
  343   5.3392  6767(82)         6806.6089     6743.3223   
  344   5.3542  6865(83)         6808.9312     6744.5913   
  345   5.3692  6864(83)         6811.2808     6745.8608   
  346   5.3842  6745(82)         6813.6572     6747.1299   
  347   5.3992  6637(81)         6816.0625     6748.3994   
  348   5.4142  6581(81)         6818.4966     6749.6685   
  349   5.4292  6651(82)         6820.9619     6750.9380   
  350   5.4442  6856(83)         6823.4580     6752.2075   
  351   5.4592  6913(83)         6825.9863     6753.4766   
  352   5.4742  6825(83)         6828.5488     6754.7461   
  353   5.4892  6849(83)         6831.1460     6756.0151   
  354   5.5042  6905(83)         6833.7793     6757.2847   
  355   5.5192  6829(83)         6836.4497     6758.5537   
  356   5.5342  6816(83)         6839.1597     6759.8232   
  357   5.5492  6774(82)         6841.9092     6761.0923   
  358   5.5642  6670(82)         6844.7012     6762.3618   
  359   5.5792  6628(81)         6847.5356     6763.6309   
  360   5.5942  6751(82)         6850.4160     6764.9004   
  361   5.6092  6852(83)         6853.3433     6766.1699   
  362   5.6242  6841(83)         6856.3184     6767.4390   
  363   5.6392  6920(83)         6859.3447     6768.7085   
  364   5.6542  6886(83)         6862.4233     6769.9775   
  365   5.6692  6730(82)         6865.5566     6771.2471   
  366   5.6842  6769(82)         6868.7466     6772.5161   
  367   5.6992  6895(83)         6871.9961     6773.7856   
  368   5.7142  6700(82)         6875.3071     6775.0547   
  369   5.7292  6741(82)         6878.6826     6776.3242   
  370   5.7442  6819(83)         6882.1255     6777.5938   
  371   5.7592  6750(82)         6885.6377     6778.8628   
  372   5.7742  6823(83)         6889.2231     6780.1323   
  373   5.7892  6982(84)         6892.8838     6781.4014   
  374   5.8042  6855(83)         6896.6250     6782.6709   
  375   5.8192  6842(83)         6900.4487     6783.9399   
  376   5.8342  6795(82)         6904.3594     6785.2095   
  377   5.8492  6888(83)         6908.3604     6786.4785   
  378   5.8642  7028(84)         6912.4565     6787.7480   
  379   5.8792  6966(83)         6916.6523     6789.0171   
  380   5.8942  6901(83)         6920.9521     6790.2866   
  381   5.9092  6878(83)         6925.3613     6791.5562   
  382   5.9242  6778(82)         6929.8838     6792.8252   
  383   5.9392  7006(84)         6934.5273     6794.0947   
  384   5.9542  6990(84)         6939.2959     6795.3638   
  385   5.9692  6953(83)         6944.1978     6796.6333   
  386   5.9842  7028(84)         6949.2383     6797.9023   
  387   5.9992  7045(84)         6954.4248     6799.1719   
  388   6.0142  7079(84)         6959.7651     6800.4409   
  389   6.0292  7160(85)         6965.2681     6801.7104   
  390   6.0442  7041(84)         6970.9409     6802.9795   
  391   6.0592  7098(84)         6976.7944     6804.2490   
  392   6.0742  6997(84)         6982.8379     6805.5186   
  393   6.0892  6981(84)         6989.0815     6806.7876   
  394   6.1042  6902(83)         6995.5376     6808.0571   
  395   6.1192  6936(83)         7002.2173     6809.3262   
  396   6.1342  6818(83)         7009.1343     6810.5957   
  397   6.1492  6806(82)         7016.3022     6811.8647   
  398   6.1642  7072(84)         7023.7373     6813.1343   
  399   6.1792  7054(84)         7031.4541     6814.4033   
  400   6.1942  7046(84)         7039.4717     6815.6729   
  401   6.2092  6999(84)         7047.8081     6816.9424   
  402   6.2242  7214(85)         7056.4839     6818.2114   
  403   6.2392  6977(84)         7065.5210     6819.4810   
  404   6.2542  7004(84)         7074.9429     6820.7500   
  405   6.2692  7004(84)         7084.7759     6822.0195   
  406   6.2842  7039(84)         7095.0483     6823.2886   
  407   6.2992  7032(84)         7105.7900     6824.5581   
  408   6.3142  7208(85)         7117.0342     6825.8271   
  409   6.3292  7019(84)         7128.8179     6827.0967   
  410   6.3442  7061(84)         7141.1792     6828.3657   
  411   6.3592  7160(85)         7154.1616     6829.6353   
  412   6.3742  7248(85)         7167.8125     6830.9048   
  413   6.3892  7112(84)         7182.1836     6832.1738   
  414   6.4042  7056(84)         7197.3311     6833.4434   
  415   6.4192  7144(85)         7213.3174     6834.7124   
  416   6.4342  7246(85)         7230.2119     6835.9819   
  417   6.4492  7129(84)         7248.0898     6837.2510   
  418   6.4642  7113(84)         7267.0361     6838.5205   
  419   6.4792  7152(85)         7287.1426     6839.7896   
  420   6.4942  7296(85)         7308.5146     6841.0591   
  421   6.5092  7313(86)         7331.2661     6842.3286   
  422   6.5242  7293(85)         7355.5259     6843.5977   
  423   6.5392  7466(86)         7381.4390     6844.8672   
  424   6.5542  7434(86)         7409.1680     6846.1362   
  425   6.5692  7387(86)         7438.8965     6847.4058   
  426   6.5842  7331(86)         7470.8325     6848.6748   
  427   6.5992  7493(87)         7505.2197     6849.9443   
  428   6.6142  7655(87)         7542.3345     6851.2134   
  429   6.6292  7685(88)         7582.5088     6852.4829   
  430   6.6442  7782(88)         7626.1382     6853.7520   
  431   6.6592  7671(88)         7673.7144     6855.0215   
  432   6.6742  7728(88)         7725.8496     6856.2910   
  433   6.6892  7821(88)         7783.3384     6857.5601   
  434   6.7042  8006(89)         7847.2261     6858.8296   
  435   6.7192  8187(90)         7918.9092     6860.0986   
  436   6.7342  8218(91)         8000.2622     6861.3682   
  437   6.7492  8487(92)         8093.8174     6862.6372   
  438   6.7642  8963(95)         8202.9668     6863.9067   
  439   6.7792  9267(96)         8332.1816     6865.1758   
  440   6.7942  9533(98)         8487.2725     6866.4453   
  441   6.8092  10113(101)        8675.5889     6867.7144   
  442   6.8242  10686(103)        8906.1748     6868.9839   
  443   6.8392  11084(105)        9189.7451     6870.2534   
  444   6.8542  11587(108)        9538.5605     6871.5225   
  445   6.8692  12149(110)        9966.0889     6872.7920   
  446   6.8842  13096(114)        10486.5576     6874.0610   
  447   6.8992  13747(117)        11114.9805     6875.3306   
  448   6.9142  14451(120)        11867.9961     6876.5996   
  449   6.9292  15476(124)        12766.7637     6877.8691   
  450   6.9442  16671(129)        13842.3936     6879.1382   
  451   6.9592  17727(133)        15144.0742     6880.4077   
  452   6.9742  19147(138)        16746.4043     6881.6772   
  453   6.9892  21047(145)        18749.9492     6882.9463   
  454   7.0042  22632(150)        21268.2793     6884.2158   
  455   7.0192  25087(158)        24398.3477     6885.4849   
  456   7.0342  27872(167)        28185.5801     6886.7544   
  457   7.0492  31344(177)        32607.5273     6888.0234   
  458   7.0642  35512(188)        37603.1953     6889.2930   
  459   7.0792  40807(202)        43142.3672     6890.5620   
  460   7.0942  47395(218)        49280.6016     6891.8315   
  461   7.1092  55392(235)        56095.4453     6893.1006   
  462   7.1242  64832(255)        63419.8008     6894.3701   
  463   7.1392  73058(270)        70427.2109     6895.6396   
  464   7.1542  79496(282)        75447.2344     6896.9087   
  465   7.1692  81248(285)        76564.7969     6898.1782   
  466   7.1842  76241(276)        72832.3516     6899.4473   
  467   7.1992  65606(256)        64890.9063     6900.7168   
  468   7.2142  52920(230)        54444.5156     6901.9858   
  469   7.2292  40331(201)        43378.5898     6903.2554   
  470   7.2442  30261(174)        33199.0273     6904.5244   
  471   7.2592  22403(150)        24813.6797     6905.7939   
  472   7.2742  17688(133)        18529.6953     6907.0630   
  473   7.2892  14133(119)        14199.5088     6908.3325   
  474   7.3042  11738(108)        11431.4609     6909.6021   
  475   7.3192  10177(101)        9780.7070     6910.8711   
  476   7.3342  9293(96)         8865.4902     6912.1406   
  477   7.3492  8647(93)         8407.0938     6913.4097   
  478   7.3642  8293(91)         8220.3633     6914.6792   
  479   7.3792  8216(91)         8187.1084     6915.9482   
  480   7.3942  7906(89)         8232.0205     6917.2178   
  481   7.4092  7888(89)         8306.8389     6918.4868   
  482   7.4242  7874(89)         8381.4277     6919.7563   
  483   7.4392  7638(87)         8438.5986     6921.0254   
  484   7.4542  7484(87)         8470.5010     6922.2949   
  485   7.4692  7573(87)         8475.6738     6923.5645   
  486   7.4842  7550(87)         8456.6064     6924.8335   
  487   7.4992  7488(87)         8417.8262     6926.1030   
  488   7.5142  7406(86)         8364.5195     6927.3721   
  489   7.5292  7337(86)         8301.6729     6928.6416   
  490   7.5442  7503(87)         8233.5684     6929.9106   
  491   7.5592  7528(87)         8163.6045     6931.1802   
  492   7.5742  7351(86)         8094.2817     6932.4492   
  493   7.5892  7260(85)         8027.3091     6933.7188   
  494   7.6042  7336(86)         7963.7402     6934.9878   
  495   7.6192  7247(85)         7904.1357     6936.2573   
  496   7.6342  7250(85)         7848.7109     6937.5269   
  497   7.6492  7306(85)         7797.4395     6938.7959   
  498   7.6642  7369(86)         7750.1543     6940.0654   
  499   7.6792  7449(86)         7706.6055     6941.3345   
  500   7.6942  7392(86)         7666.5142     6942.6040   
  501   7.7092  7402(86)         7629.5874     6943.8730   
  502   7.7242  7287(85)         7595.5435     6945.1426   
  503   7.7392  7419(86)         7564.1201     6946.4116   
  504   7.7542  7334(86)         7535.0762     6947.6812   
  505   7.7692  7287(85)         7508.1924     6948.9502   
  506   7.7842  7255(85)         7483.2715     6950.2197   
  507   7.7992  7265(85)         7460.1392     6951.4893   
  508   7.8142  7320(86)         7438.6367     6952.7583   
  509   7.8292  7343(86)         7418.6230     6954.0278   
  510   7.8442  7230(85)         7399.9712     6955.2969   
  511   7.8592  7288(85)         7382.5698     6956.5664   
  512   7.8742  7185(85)         7366.3154     6957.8354   
  513   7.8892  7174(85)         7351.1167     6959.1050   
  514   7.9042  7209(85)         7336.8906     6960.3740   
  515   7.9192  7079(84)         7323.5630     6961.6436   
  516   7.9342  7224(85)         7311.0654     6962.9131   
  517   7.9492  7133(84)         7299.3359     6964.1821   
  518   7.9642  7223(85)         7298.5850     6965.4517   
  519   7.9792  7129(84)         7288.3750     6966.7207   
  520   7.9942  7161(85)         7278.7832     6967.9902   
  521   8.0092  7190(85)         7269.7671     6969.2593   
  522   8.0242  7173(85)         7261.2881     6970.5288   
  523   8.0392  7187(85)         7253.3101     6971.7979   
  524   8.0542  7075(84)         7245.8008     6973.0674   
  525   8.0692  7253(85)         7238.7305     6974.3364   
  526   8.0842  7273(85)         7232.0708     6975.6060   
  527   8.0992  7201(85)         7225.7969     6976.8755   
  528   8.1142  7158(85)         7219.8848     6978.1445   
  529   8.1292  7160(85)         7214.3135     6979.4141   
  530   8.1442  7191(85)         7209.0625     6980.6831   
  531   8.1592  7149(85)         7204.1138     6981.9526   
  532   8.1742  7191(85)         7199.4487     6983.2217   
  533   8.1892  7239(85)         7195.0537     6984.4912   
  534   8.2042  7272(85)         7190.9116     6985.7603   
  535   8.2192  7259(85)         7187.0103     6987.0298   
  536   8.2342  7150(85)         7183.3364     6988.2993   
  537   8.2492  7116(84)         7179.8779     6989.5684   
  538   8.2642  7036(84)         7176.6240     6990.8379   
  539   8.2792  7078(84)         7173.5635     6992.1069   
  540   8.2942  7275(85)         7170.6880     6993.3765   
  541   8.3092  7317(86)         7167.9873     6994.6455   
  542   8.3242  7262(85)         7165.4546     6995.9150   
  543   8.3392  7261(85)         7163.0801     6997.1841   
  544   8.3542  7153(85)         7160.8574     6998.4536   
  545   8.3692  7154(85)         7158.7798     6999.7227   
  546   8.3842  7258(85)         7156.8408     7000.9922   
  547   8.3992  7192(85)         7155.0342     7002.2617   
  548   8.4142  7174(85)         7153.3535     7003.5308   
  549   8.4292  7119(84)         7151.7949     7004.8003   
  550   8.4442  7217(85)         7150.3525     7006.0693   
  551   8.4592  7323(86)         7149.0220     7007.3389   
  552   8.4742  7261(85)         7147.7983     7008.6079   
  553   8.4892  7269(85)         7146.6787     7009.8774   
  554   8.5042  7288(85)         7145.6582     7011.1465   
  555   8.5192  7050(84)         7144.7339     7012.4160   
  556   8.5342  7217(85)         7143.9019     7013.6851   
  557   8.5492  7251(85)         7143.1597     7014.9546   
  558   8.5642  7172(85)         7142.5034     7016.2241   
  559   8.5792  7252(85)         7141.9312     7017.4932   
  560   8.5942  7185(85)         7141.4399     7018.7627   
  561   8.6092  7156(85)         7141.0273     7020.0317   
  562   8.6242  7113(84)         7140.6919     7021.3013   
  563   8.6392  7214(85)         7140.4307     7022.5703   
  564   8.6542  7194(85)         7140.2422     7023.8398   
  565   8.6692  7097(84)         7140.1245     7025.1089   
  566   8.6842  7108(84)         7140.0762     7026.3784   
  567   8.6992  7266(85)         7140.0952     7027.6475   
  568   8.7142  7238(85)         7140.1816     7028.9170   
  569   8.7292  7191(85)         7140.3330     7030.1865   
  570   8.7442  7149(85)         7140.5483     7031.4556   
  571   8.7592  7254(85)         7140.8276     7032.7251   
  572   8.7742  7340(86)         7141.1685     7033.9941   
  573   8.7892  7322(86)         7141.5723     7035.2637   
  574   8.8042  7248(85)         7142.0361     7036.5327   
  575   8.8192  7169(85)         7142.5615     7037.8022   
  576   8.8342  7249(85)         7143.1470     7039.0713   
  577   8.8492  7313(86)         7144.1855     7040.7334   
  578   8.8642  7211(85)         7145.3447     7042.4556   
  579   8.8792  7276(85)         7146.5640     7044.1777   
  580   8.8942  7341(86)         7147.8438     7045.9004   
  581   8.9092  7292(85)         7149.1841     7047.6226   
  582   8.9242  7295(85)         7150.5854     7049.3447   
  583   8.9392  7284(85)         7152.0488     7051.0669   
  584   8.9542  7087(84)         7153.5742     7052.7891   
  585   8.9692  7157(85)         7155.1636     7054.5117   
  586   8.9842  7246(85)         7156.8169     7056.2339   
  587   8.9992  7189(85)         7158.5361     7057.9561   
  588   9.0142  7247(85)         7160.3223     7059.6782   
  589   9.0292  7375(86)         7162.1768     7061.4004   
  590   9.0442  7314(86)         7164.1021     7063.1230   
  591   9.0592  7334(86)         7166.0996     7064.8452   
  592   9.0742  7364(86)         7168.1714     7066.5674   
  593   9.0892  7315(86)         7170.3203     7068.2896   
  594   9.1042  7469(86)         7172.5493     7070.0122   
  595   9.1192  7486(87)         7174.8608     7071.7344   
  596   9.1342  7157(85)         7177.2583     7073.4565   
  597   9.1492  7271(85)         7179.7451     7075.1787   
  598   9.1642  7338(86)         7182.3257     7076.9009   
  599   9.1792  7423(86)         7185.0049     7078.6235   
  600   9.1942  7262(85)         7187.7861     7080.3457   
  601   9.2092  7339(86)         7190.6758     7082.0679   
  602   9.2242  7485(87)         7193.6792     7083.7900   
  603   9.2392  7458(86)         7196.8027     7085.5122   
  604   9.2542  7253(85)         7200.0532     7087.2344   
  605   9.2692  7423(86)         7203.4390     7088.9570   
  606   9.2842  7184(85)         7206.9668     7090.6792   
  607   9.2992  7369(86)         7210.6475     7092.4014   
  608   9.3142  7376(86)         7214.4902     7094.1235   
  609   9.3292  7317(86)         7218.5063     7095.8457   
  610   9.3442  7352(86)         7222.7090     7097.5684   
  611   9.3592  7313(86)         7227.1104     7099.2905   
  612   9.3742  7352(86)         7231.7256     7101.0127   
  613   9.3892  7505(87)         7236.5723     7102.7349   
  614   9.4042  7427(86)         7241.6680     7104.4570   
  615   9.4192  7448(86)         7247.0337     7106.1797   
  616   9.4342  7366(86)         7252.6919     7107.9019   
  617   9.4492  7436(86)         7218.5518     7109.6240   
  618   9.4642  7350(86)         7225.3940     7111.3462   
  619   9.4792  7443(86)         7232.6050     7113.0688   
  620   9.4942  7362(86)         7240.2188     7114.7910   
  621   9.5092  7423(86)         7248.2778     7116.5132   
  622   9.5242  7384(86)         7256.8271     7118.2354   
  623   9.5392  7367(86)         7265.9180     7119.9575   
  624   9.5542  7479(86)         7275.6118     7121.6802   
  625   9.5692  7469(86)         7285.9736     7123.4023   
  626   9.5842  7477(86)         7297.0854     7125.1245   
  627   9.5992  7367(86)         7309.0386     7126.8467   
  628   9.6142  7391(86)         7321.9438     7128.5688   
  629   9.6292  7507(87)         7335.9390     7130.2915   
  630   9.6442  7308(85)         7351.1899     7132.0137   
  631   9.6592  7377(86)         7367.9126     7133.7358   
  632   9.6742  7401(86)         7386.3887     7135.4580   
  633   9.6892  7415(86)         7406.9897     7137.1807   
  634   9.7042  7516(87)         7430.2119     7138.9028   
  635   9.7192  7386(86)         7456.7271     7140.6250   
  636   9.7342  7275(85)         7487.4297     7142.3472   
  637   9.7492  7524(87)         7523.4990     7144.0693   
  638   9.7642  7436(86)         7566.4683     7145.7920   
  639   9.7792  7501(87)         7618.2598     7147.5142   
  640   9.7942  7562(87)         7684.9575     7149.2363   
  641   9.8092  7607(87)         7761.9507     7150.9585   
  642   9.8242  7621(87)         7856.0508     7152.6807   
  643   9.8392  7852(89)         7970.7295     7154.4033   
  644   9.8542  7938(89)         8109.7510     7156.1255   
  645   9.8692  7988(89)         8277.4180     7157.8477   
  646   9.8842  8193(91)         8479.3359     7159.5698   
  647   9.8992  8561(93)         8723.8291     7161.2920   
  648   9.9142  8856(94)         9024.1768     7163.0142   
  649   9.9292  9244(96)         9400.9277     7164.7368   
  650   9.9442  9556(98)         9882.4482     7166.4590   
  651   9.9592  10249(101)        10502.3242     7168.1812   
  652   9.9742  10910(104)        11292.3652     7169.9033   
  653   9.9892  11584(108)        12274.7109     7171.6255   
  654  10.0042  12954(114)        13458.9277     7173.3481   
  655  10.0192  14192(119)        14847.3262     7175.0703   
  656  10.0342  15537(125)        16443.6309     7176.7925   
  657  10.0492  17304(132)        18244.0000     7178.5146   
  658  10.0642  19288(139)        20182.2051     7180.2373   
  659  10.0792  21306(146)        22030.3711     7181.9595   
  660  10.0942  22961(152)        23343.1777     7183.6816   
  661  10.1092  23891(155)        23615.6758     7185.4038   
  662  10.1242  23171(152)        22634.0996     7187.1260   
  663  10.1392  21134(145)        20635.0547     7188.8486   
  664  10.1542  18422(136)        18106.8652     7190.5708   
  665  10.1692  15280(124)        15524.6455     7192.2930   
  666  10.1842  12676(113)        13224.5664     7194.0151   
  667  10.1992  10918(104)        11379.9258     7195.7373   
  668  10.2142  9550(98)         10024.3105     7197.4600   
  669  10.2292  8738(93)         9099.1123     7199.1821   
  670  10.2442  8357(91)         8505.0322     7200.9043   
  671  10.2592  8128(90)         8141.9165     7202.6265   
  672  10.2742  7901(89)         7929.2031     7204.3491   
  673  10.2892  7817(88)         7809.8037     7206.0713   
  674  10.3042  7638(87)         7745.9702     7207.7935   
  675  10.3192  7469(86)         7713.4697     7209.5156   
  676  10.3342  7584(87)         7696.9199     7211.2378   
  677  10.3492  7577(87)         7686.8306     7212.9604   
  678  10.3642  7400(86)         7677.7178     7214.6826   
  679  10.3792  7368(86)         7666.8320     7216.4048   
  680  10.3942  7454(86)         7653.2056     7218.1270   
  681  10.4092  7365(86)         7636.9316     7219.8491   
  682  10.4242  7445(86)         7618.6411     7221.5718   
  683  10.4392  7394(86)         7599.1538     7223.2939   
  684  10.4542  7455(86)         7579.2715     7225.0161   
  685  10.4692  7340(86)         7559.6582     7226.7383   
  686  10.4842  7329(86)         7540.8101     7228.4604   
  687  10.4992  7443(86)         7523.0557     7230.1826   
  688  10.5142  7441(86)         7506.5762     7231.9053   
  689  10.5292  7356(86)         7491.4468     7233.6274   
  690  10.5442  7216(85)         7477.6602     7235.3496   
  691  10.5592  7276(85)         7465.1636     7237.0718   
  692  10.5742  7345(86)         7453.8745     7238.7939   
  693  10.5892  7291(85)         7443.6963     7240.5166   
  694  10.6042  7431(86)         7434.5303     7242.2388   
  695  10.6192  7387(86)         7426.2817     7243.9609   
  696  10.6342  7424(86)         7418.8613     7245.6831   
  697  10.6492  7273(85)         7412.1885     7247.4058   
  698  10.6642  7331(86)         7406.1904     7249.1279   
  699  10.6792  7414(86)         7400.8018     7250.8501   
  700  10.6942  7259(85)         7395.9663     7252.5723   
  701  10.7092  7335(86)         7391.6323     7254.2944   
  702  10.7242  7569(87)         7387.7559     7256.0171   
  703  10.7392  7422(86)         7384.2959     7257.7393   
  704  10.7542  7445(86)         7381.2173     7259.4614   
  705  10.7692  7473(86)         7378.4888     7261.1836   
  706  10.7842  7436(86)         7376.0825     7262.9058   
  707  10.7992  7371(86)         7373.9731     7264.6284   
  708  10.8142  7413(86)         7380.2051     7266.3506   
  709  10.8292  7485(87)         7378.7437     7268.0728   
  710  10.8442  7380(86)         7377.5220     7269.7949   
  711  10.8592  7299(85)         7376.5239     7271.5176   
  712  10.8742  7328(86)         7375.7358     7273.2397   
  713  10.8892  7312(86)         7375.1440     7274.9619   
  714  10.9042  7455(86)         7374.7383     7276.6841   
  715  10.9192  7319(86)         7374.5083     7278.4063   
  716  10.9342  7262(85)         7374.4448     7280.1289   
  717  10.9492  7555(87)         7374.5400     7281.8511   
  718  10.9642  7589(87)         7374.7871     7283.5732   
  719  10.9792  7429(86)         7375.1792     7285.2954   
  720  10.9942  7415(86)         7375.7119     7287.0176   
  721  11.0092  7457(86)         7376.3813     7288.7402   
  722  11.0242  7362(86)         7377.1821     7290.4624   
  723  11.0392  7348(86)         7378.1123     7292.1846   
  724  11.0542  7455(86)         7379.1689     7293.9067   
  725  11.0692  7477(86)         7380.3506     7295.6289   
  726  11.0842  7545(87)         7381.6567     7297.3511   
  727  11.0992  7571(87)         7383.0864     7299.0737   
  728  11.1142  7580(87)         7384.6401     7300.7959   
  729  11.1292  7531(87)         7386.3184     7302.5181   
  730  11.1442  7595(87)         7388.1235     7304.2402   
  731  11.1592  7667(88)         7390.0581     7305.9624   
  732  11.1742  7700(88)         7392.1250     7307.6851   
  733  11.1892  7518(87)         7394.3281     7309.4072   
  734  11.2042  7446(86)         7396.6729     7311.1294   
  735  11.2192  7578(87)         7399.1646     7312.8516   
  736  11.2342  7545(87)         7401.8115     7314.5742   
  737  11.2492  7462(86)         7404.6211     7316.2964   
  738  11.2642  7511(87)         7407.6030     7318.0186   
  739  11.2792  7576(87)         7410.7686     7319.7407   
  740  11.2942  7501(87)         7414.1309     7321.4629   
  741  11.3092  7416(86)         7417.7051     7323.1855   
  742  11.3242  7586(87)         7421.5073     7324.9077   
  743  11.3392  7580(87)         7425.5586     7326.6299   
  744  11.3542  7409(86)         7429.8813     7328.3521   
  745  11.3692  7379(86)         7434.5020     7330.0742   
  746  11.3842  7501(87)         7439.4531     7331.7969   
  747  11.3992  7524(87)         7444.7710     7333.5190   
  748  11.4142  7540(87)         7450.5010     7335.2412   
  749  11.4292  7561(87)         7456.6992     7336.9634   
  750  11.4442  7583(87)         7463.4341     7338.6855   
  751  11.4592  7467(86)         7470.7974     7340.4082   
  752  11.4742  7452(86)         7478.9038     7342.1304   
  753  11.4892  7454(86)         7487.9102     7343.8525   
  754  11.5042  7562(87)         7498.0249     7345.5747   
  755  11.5192  7458(86)         7509.5278     7347.2974   
  756  11.5342  7443(86)         7522.7896     7349.0195   
  757  11.5492  7595(87)         7538.2979     7350.7417   
  758  11.5642  7704(88)         7556.6748     7352.4639   
  759  11.5792  7703(88)         7578.6948     7354.1860   
  760  11.5942  7585(87)         7605.2910     7355.9087   
  761  11.6092  7589(87)         7637.5425     7357.6309   
  762  11.6242  7727(88)         7676.6567     7359.3530   
  763  11.6392  7730(88)         7723.9761     7361.0752   
  764  11.6542  7882(89)         7781.0220     7362.7974   
  765  11.6692  7985(89)         7849.7388     7364.5195   
  766  11.6842  7915(89)         7932.9512     7366.2422   
  767  11.6992  8235(91)         8035.1499     7367.9644   
  768  11.7142  8196(91)         8163.4160     7369.6865   
  769  11.7292  8430(92)         8327.8867     7371.4087   
  770  11.7442  8496(92)         8541.1660     7373.1309   
  771  11.7592  8901(94)         8816.3203     7374.8535   
  772  11.7742  9168(96)         9164.0156     7376.5757   
  773  11.7892  9526(98)         9590.9082     7378.2979   
  774  11.8042  9917(100)        10100.6416     7380.0200   
  775  11.8192  10739(104)        10694.9502     7381.7422   
  776  11.8342  11538(107)        11368.2051     7383.4648   
  777  11.8492  12634(112)        12084.7070     7385.1870   
  778  11.8642  13692(117)        12741.8594     7386.9092   
  779  11.8792  14682(121)        13159.7676     7388.6313   
  780  11.8942  14842(122)        13162.5762     7390.3540   
  781  11.9092  14663(121)        12713.4785     7392.0762   
  782  11.9242  13092(114)        11939.7539     7393.7983   
  783  11.9392  11766(108)        11031.3135     7395.5205   
  784  11.9542  10299(101)        10148.6982     7397.2427   
  785  11.9692  9288(96)         9392.1221     7398.9653   
  786  11.9842  8490(92)         8803.9102     7400.6875   
  787  11.9992  8127(90)         8382.2119     7402.4097   
  788  12.0142  8104(90)         8099.4736     7404.1318   
  789  12.0292  8051(90)         7919.8638     7405.8540   
  790  12.0442  7618(87)         7810.5259     7407.5767   
  791  12.0592  7544(87)         7746.3452     7409.2988   
  792  12.0742  7692(88)         7709.9756     7411.0210   
  793  12.0892  7640(87)         7690.0566     7412.7432   
  794  12.1042  7587(87)         7679.3457     7414.4658   
  795  12.1192  7703(88)         7673.3252     7416.1880   
  796  12.1342  7645(87)         7669.3066     7417.9102   
  797  12.1492  7516(87)         7665.8311     7419.6323   
  798  12.1642  7440(86)         7662.2432     7421.3545   
  799  12.1792  7377(86)         7658.3765     7423.0771   
  800  12.1942  7363(86)         7654.3320     7424.7993   
  801  12.2092  7492(87)         7650.3271     7426.5215   
  802  12.2242  7441(86)         7646.6055     7428.2437   
  803  12.2392  7465(86)         7643.3818     7429.9658   
  804  12.2542  7495(87)         7630.6978     7431.6880   
  805  12.2692  7451(86)         7629.0669     7433.4106   
  806  12.2842  7438(86)         7628.2939     7435.1328   
  807  12.2992  7448(86)         7631.6182     7436.8550   
  808  12.3142  7467(86)         7632.7173     7438.5771   
  809  12.3292  7428(86)         7634.7520     7440.2993   
  810  12.3442  7479(86)         7637.7319     7442.0220   
  811  12.3592  7548(87)         7641.6699     7443.7441   
  812  12.3742  7446(86)         7646.5869     7445.4663   
  813  12.3892  7432(86)         7652.5186     7447.1885   
  814  12.4042  7518(87)         7659.5142     7448.9106   
  815  12.4192  7530(87)         7667.6475     7450.6333   
  816  12.4342  7441(86)         7677.0161     7452.3555   
  817  12.4492  7470(86)         7687.7534     7454.0776   
  818  12.4642  7541(87)         7700.0430     7455.7998   
  819  12.4792  7443(86)         7714.1328     7457.5225   
  820  12.4942  7553(87)         7730.3564     7459.2446   
  821  12.5092  7459(86)         7749.1753     7460.9668   
  822  12.5242  7561(87)         7771.2065     7462.6890   
  823  12.5392  7553(87)         7797.2744     7464.4111   
  824  12.5542  7475(86)         7828.4653     7466.1338   
  825  12.5692  7638(87)         7866.1548     7467.8560   
  826  12.5842  7709(88)         7912.0620     7469.5781   
  827  12.5992  7720(88)         7968.2344     7471.3003   
  828  12.6142  7629(87)         8037.0342     7473.0225   
  829  12.6292  7730(88)         8121.1240     7474.7451   
  830  12.6442  7951(89)         8223.4629     7476.4673   
  831  12.6592  8007(89)         8347.5332     7478.1895   
  832  12.6742  8179(90)         8497.9775     7479.9116   
  833  12.6892  8250(91)         8681.7910     7481.6343   
  834  12.7042  8595(93)         8910.1553     7483.3564   
  835  12.7192  8899(94)         9200.3740     7485.0786   
  836  12.7342  9400(97)         9576.4219     7486.8008   
  837  12.7492  9939(100)        10066.9238     7488.5229   
  838  12.7642  10876(104)        10700.3320     7490.2456   
  839  12.7792  11358(107)        11499.1563     7491.9678   
  840  12.7942  12418(111)        12478.0801     7493.6899   
  841  12.8092  13736(117)        13645.5684     7495.4121   
  842  12.8242  15168(123)        15001.4160     7497.1343   
  843  12.8392  16824(130)        16510.6895     7498.8569   
  844  12.8542  18530(136)        18037.1582     7500.5791   
  845  12.8692  20260(142)        19272.1699     7502.3013   
  846  12.8842  21245(146)        19791.5039     7504.0234   
  847  12.8992  20804(144)        19325.5293     7505.7456   
  848  12.9142  19895(141)        17984.5586     7507.4678   
  849  12.9292  17605(133)        16147.7373     7509.1904   
  850  12.9442  15161(123)        14211.1602     7510.9126   
  851  12.9592  12920(114)        12454.6240     7512.6348   
  852  12.9742  11413(107)        11024.3809     7514.3569   
  853  12.9892  10005(100)        9956.4238     7516.0791   
  854  13.0042  9194(96)         9213.6045     7517.8018   
  855  13.0192  8742(93)         8725.2617     7519.5239   
  856  13.0342  8528(92)         8417.3691     7521.2461   
  857  13.0492  8282(91)         8228.7441     7522.9683   
  858  13.0642  8109(90)         8115.2095     7524.6909   
  859  13.0792  8127(90)         8047.1157     7526.4131   
  860  13.0942  7843(89)         8005.2993     7528.1353   
  861  13.1092  7836(89)         7977.6846     7529.8574   
  862  13.1242  7849(89)         7956.9150     7531.5796   
  863  13.1392  7811(88)         7938.7881     7533.3022   
  864  13.1542  7749(88)         7921.1846     7535.0244   
  865  13.1692  7731(88)         7903.2798     7536.7466   
  866  13.1842  7618(87)         7884.9932     7538.4688   
  867  13.1992  7620(87)         7866.6050     7540.1909   
  868  13.2142  7686(88)         7848.5122     7541.9136   
  869  13.2292  7670(88)         7831.0962     7543.6357   
  870  13.2442  7613(87)         7814.6543     7545.3579   
  871  13.2592  7666(88)         7799.3779     7547.0801   
  872  13.2742  7635(87)         7785.3662     7548.8027   
  873  13.2892  7568(87)         7772.6382     7550.5249   
  874  13.3042  7597(87)         7761.1592     7552.2471   
  875  13.3192  7723(88)         7750.8604     7553.9692   
  876  13.3342  7575(87)         7741.6533     7555.6914   
  877  13.3492  7682(88)         7733.4438     7557.4141   
  878  13.3642  7515(87)         7726.1392     7559.1362   
  879  13.3792  7564(87)         7719.6489     7560.8584   
  880  13.3942  7542(87)         7713.8936     7562.5806   
  881  13.4092  7764(88)         7708.8008     7564.3027   
  882  13.4242  7590(87)         7704.3052     7566.0254   
  883  13.4392  7795(88)         7700.3501     7567.7476   
  884  13.4542  7729(88)         7696.8862     7569.4697   
  885  13.4692  7695(88)         7693.8691     7571.1919   
  886  13.4842  7605(87)         7691.2617     7572.9141   
  887  13.4992  7764(88)         7689.8354     7575.4419   
  888  13.5142  7666(88)         7691.9761     7581.1899   
  889  13.5292  7735(88)         7694.4375     7586.9375   
  890  13.5442  7621(87)         7697.1987     7592.6860   
  891  13.5592  7647(87)         7700.2393     7598.4341   
  892  13.5742  7697(88)         7703.5435     7604.1821   
  893  13.5892  7601(87)         7707.0957     7609.9302   
  894  13.6042  7710(88)         7710.8848     7615.6782   
  895  13.6192  7772(88)         7714.9009     7621.4263   
  896  13.6342  7628(87)         7719.1348     7627.1743   
  897  13.6492  7835(89)         7723.5806     7632.9224   
  898  13.6642  7703(88)         7728.2329     7638.6704   
  899  13.6792  7731(88)         7733.0894     7644.4185   
  900  13.6942  7741(88)         7738.1475     7650.1665   
  901  13.7092  7962(89)         7743.4072     7655.9146   
  902  13.7242  7844(89)         7748.8716     7661.6631   
  903  13.7392  7734(88)         7754.5415     7667.4106   
  904  13.7542  7821(88)         7760.4243     7673.1587   
  905  13.7692  7883(89)         7766.5269     7678.9072   
  906  13.7842  7838(89)         7772.8569     7684.6548   
  907  13.7992  7795(88)         7779.4287     7690.4033   
  908  13.8142  7816(88)         7786.2544     7696.1514   
  909  13.8292  7848(89)         7793.3521     7701.8989   
  910  13.8442  7746(88)         7800.7446     7707.6475   
  911  13.8592  7774(88)         7809.2070     7713.3955   
  912  13.8742  7897(89)         7817.2798     7719.1436   
  913  13.8892  7872(89)         7825.7412     7724.8916   
  914  13.9042  7720(88)         7834.6387     7730.6396   
  915  13.9192  7829(88)         7844.0322     7736.3877   
  916  13.9342  7883(89)         7853.9995     7742.1357   
  917  13.9492  7745(88)         7864.6411     7747.8838   
  918  13.9642  7891(89)         7876.0918     7753.6318   
  919  13.9792  7945(89)         7888.5313     7759.3799   
  920  13.9942  8009(89)         7898.5493     7765.1279   
  921  14.0092  7902(89)         7913.8140     7770.8760   
  922  14.0242  7884(89)         7931.0386     7776.6245   
  923  14.0392  7890(89)         7950.7485     7782.3721   
  924  14.0542  8027(90)         7973.6021     7788.1201   
  925  14.0692  8022(90)         8000.3813     7793.8682   
  926  14.0842  8095(90)         8031.9985     7799.6162   
  927  14.0992  8249(91)         8069.4790     7805.3647   
  928  14.1142  8352(91)         8113.9775     7811.1123   
  929  14.1292  8330(91)         8166.8794     7816.8604   
  930  14.1442  8326(91)         8230.0313     7822.6089   
  931  14.1592  8271(91)         8306.2266     7828.3564   
  932  14.1742  8536(92)         8399.9424     7834.1050   
  933  14.1892  8779(94)         8518.0293     7839.8530   
  934  14.2042  8962(95)         8669.9854     7845.6006   
  935  14.2192  9218(96)         8867.2510     7851.3491   
  936  14.2342  9442(97)         9121.3623     7857.0972   
  937  14.2492  9833(99)         9441.9551     7862.8452   
  938  14.2642  10167(101)        9835.9092     7868.5933   
  939  14.2792  10574(103)        10307.2422     7874.3413   
  940  14.2942  11088(105)        10854.5654     7880.0894   
  941  14.3092  11466(107)        11457.7148     7885.8374   
  942  14.3242  11971(109)        12049.8320     7891.5854   
  943  14.3392  12402(111)        12494.6895     7897.3335   
  944  14.3542  12287(111)        12627.0664     7903.0815   
  945  14.3692  12113(110)        12370.6953     7908.8296   
  946  14.3842  11795(109)        11802.8750     7914.5776   
  947  14.3992  11193(106)        11083.4072     7920.3262   
  948  14.4142  10435(102)        10357.9297     7926.0737   
  949  14.4292  10004(100)        9719.9873     7931.8218   
  950  14.4442  9448(97)         9212.6387     7937.5698   
  951  14.4592  9330(97)         8840.5859     7943.3179   
  952  14.4742  8911(94)         8585.4287     7949.0664   
  953  14.4892  8892(94)         8419.5674     7954.8140   
  954  14.5042  8639(93)         8316.1240     7960.5620   
  955  14.5192  8526(92)         8253.6826     7966.3105   
  956  14.5342  8426(92)         8216.9951     7972.0581   
  957  14.5492  8200(91)         8195.8828     7977.8066   
  958  14.5642  8269(91)         8183.7935     7983.5547   
  959  14.5792  8419(92)         8176.6211     7989.3027   
  960  14.5942  8147(90)         8171.8965     7995.0508   
  961  14.6092  8172(90)         8168.2402     8000.7988   
  962  14.6242  8059(90)         8164.9717     8006.5469   
  963  14.6392  8253(91)         8161.8354     8012.2949   
  964  14.6542  8345(91)         8164.8335     8018.0430   
  965  14.6692  8196(91)         8162.0957     8023.7910   
  966  14.6842  8181(90)         8159.6743     8029.5391   
  967  14.6992  7961(89)         8157.6738     8035.2871   
  968  14.7142  8034(90)         8156.1680     8041.0352   
  969  14.7292  8232(91)         8155.1968     8046.7832   
  970  14.7442  8220(91)         8154.7705     8052.5313   
  971  14.7592  8215(91)         8154.8750     8058.2793   
  972  14.7742  7999(89)         8155.4844     8064.0278   
  973  14.7892  8134(90)         8156.5596     8069.7754   
  974  14.8042  8237(91)         8158.9282     8075.5234   
  975  14.8192  8134(90)         8160.8301     8081.2715   
  976  14.8342  8204(91)         8163.0806     8087.0195   
  977  14.8492  8239(91)         8165.6445     8092.7681   
  978  14.8642  8142(90)         8168.4897     8098.5156   
  979  14.8792  8139(90)         8171.5879     8104.2637   
  980  14.8942  8096(90)         8174.9146     8110.0122   
  981  14.9092  8213(91)         8178.4468     8115.7598   
  982  14.9242  8207(91)         8182.1665     8121.5083   
  983  14.9392  8270(91)         8186.0562     8127.2563   
  984  14.9542  8115(90)         8190.1006     8133.0044   
  985  14.9692  8189(90)         8186.3628     8138.7524   
  986  14.9842  8205(91)         8190.7920     8144.5005   
  987  14.9992  8417(92)         8195.3398     8150.2485   
  988  15.0142  8213(91)         8199.9961     8155.9966   
  989  15.0292  8206(91)         8204.7529     8161.7446   
  990  15.0442  8208(91)         8209.6045     8167.4927   
  991  15.0592  8281(91)         8214.5439     8173.2407   
  992  15.0742  8126(90)         8219.5664     8178.9888   
  993  15.0892  8152(90)         8224.6670     8184.7368   
  994  15.1042  8305(91)         8229.8408     8190.4849   
  995  15.1192  8336(91)         8235.0840     8196.2324   
  996  15.1342  8285(91)         8240.3965     8201.9814   
  997  15.1492  8497(92)         8245.7734     8207.7295   
  998  15.1642  8463(92)         8251.2109     8213.4775   
  999  15.1792  8371(91)         8256.7100     8219.2256   
 1000  15.1942  8410(92)         8262.2686     8224.9736   
 1001  15.2092  8392(92)         8267.8848     8230.7217   
 1002  15.2242  8362(91)         8283.0283     8236.4697   
 1003  15.2392  8407(92)         8288.8984     8242.2178   
 1004  15.2542  8422(92)         8294.8291     8247.9658   
 1005  15.2692  8239(91)         8300.8213     8253.7139   
 1006  15.2842  8318(91)         8306.8750     8259.4619   
 1007  15.2992  8383(92)         8312.9912     8265.2100   
 1008  15.3142  8363(91)         8319.1738     8270.9580   
 1009  15.3292  8351(91)         8325.4229     8276.7061   
 1010  15.3442  8323(91)         8331.7422     8282.4541   
 1011  15.3592  8404(92)         8338.1348     8288.2021   
 1012  15.3742  8317(91)         8344.6055     8293.9502   
 1013  15.3892  8446(92)         8351.1592     8299.6982   
 1014  15.4042  8090(90)         8357.8008     8305.4463   
 1015  15.4192  8377(92)         8364.5381     8311.1943   
 1016  15.4342  8377(92)         8371.3789     8316.9424   
 1017  15.4492  8510(92)         8378.3330     8322.6904   
 1018  15.4642  8395(92)         8385.4141     8328.4385   
 1019  15.4792  8481(92)         8392.6357     8334.1865   
 1020  15.4942  8531(92)         8400.0186     8339.9346   
 1021  15.5092  8302(91)         8407.5879     8345.6826   
 1022  15.5242  8365(91)         8415.3779     8351.4307   
 1023  15.5392  8443(92)         8423.4307     8357.1787   
 1024  15.5542  8363(91)         8431.8057     8362.9268   
 1025  15.5692  8529(92)         8486.3057     8368.6748   
 1026  15.5842  8433(92)         8496.2451     8374.4229   
 1027  15.5992  8406(92)         8506.8193     8380.1709   
 1028  15.6142  8237(91)         8518.1836     8385.9189   
 1029  15.6292  8419(92)         8530.5186     8391.6670   
 1030  15.6442  8462(92)         8544.0361     8397.4150   
 1031  15.6592  8488(92)         8558.9717     8403.1631   
 1032  15.6742  8542(92)         8574.4707     8407.7813   
 1033  15.6892  8585(93)         8591.0059     8411.4111   
 1034  15.7042  8555(92)         8610.0195     8415.0410   
 1035  15.7192  8577(93)         8632.2129     8418.6709   
 1036  15.7342  8666(93)         8658.6865     8422.3008   
 1037  15.7492  8715(93)         8691.0957     8425.9307   
 1038  15.7642  8596(93)         8731.6963     8429.5605   
 1039  15.7792  8520(92)         8783.1426     8433.1895   
 1040  15.7942  8705(93)         8848.1230     8436.8193   
 1041  15.8092  8711(93)         8928.9326     8440.4492   
 1042  15.8242  8572(93)         9027.2705     8444.0791   
 1043  15.8392  8819(94)         9144.0840     8447.7090   
 1044  15.8542  8826(94)         9278.3496     8451.3389   
 1045  15.8692  8730(93)         9423.2061     8454.9678   
 1046  15.8842  8686(93)         9559.2559     8458.5977   
 1047  15.8992  8809(94)         9651.7285     8462.2275   
 1048  15.9142  8825(94)         9665.3877     8465.8574   
 1049  15.9292  8785(94)         9592.1543     8469.4873   
 1050  15.9442  8851(94)         9457.4658     8473.1172   
 1051  15.9592  8757(94)         9298.6514     8476.7461   
 1052  15.9742  8649(93)         9145.6191     8480.3760   
 1053  15.9892  8704(93)         9015.8018     8484.0059   
 1054  16.0042  8699(93)         8915.9707     8487.6357   
 1055  16.0192  8675(93)         8845.5127     8491.2656   
 1056  16.0342  8663(93)         8799.6836     8494.8955   
 1057  16.0492  8812(94)         8772.4053     8498.5254   
 1058  16.0642  8778(94)         8758.0889     8502.1543   
 1059  16.0792  8638(93)         8752.3838     8505.7842   
 1060  16.0942  8592(93)         8847.1357     8509.4141   
 1061  16.1092  8844(94)         8851.8760     8513.0439   
 1062  16.1242  8857(94)         8858.8672     8516.6738   
 1063  16.1392  8774(94)         8867.3105     8520.3037   
 1064  16.1542  8729(93)         8876.7480     8523.9326   
 1065  16.1692  8604(93)         8886.9482     8527.5635   
 1066  16.1842  8897(94)         8963.3975     8531.1924   
 1067  16.1992  8853(94)         8975.8887     8534.8223   
 1068  16.2142  8708(93)         8989.1279     8538.4521   
 1069  16.2292  8857(94)         9003.1973     8542.0820   
 1070  16.2442  8884(94)         9018.1992     8545.7109   
 1071  16.2592  8874(94)         9034.2529     8549.3408   
 1072  16.2742  8785(94)         9051.4912     8552.9707   
 1073  16.2892  8965(95)         9070.0684     8556.6006   
 1074  16.3042  9099(95)         9090.1777     8560.2305   
 1075  16.3192  9055(95)         9112.0645     8563.8604   
 1076  16.3342  8936(95)         9136.0420     8567.4902   
 1077  16.3492  8965(95)         9162.5293     8571.1191   
 1078  16.3642  9097(95)         9192.0762     8574.7490   
 1079  16.3792  9087(95)         9225.3848     8578.3789   
 1080  16.3942  9026(95)         9263.3574     8582.0088   
 1081  16.4092  9213(96)         9303.9512     8585.6387   
 1082  16.4242  9194(96)         9354.8799     8589.2686   
 1083  16.4392  9213(96)         9414.5068     8592.8975   
 1084  16.4542  9436(97)         9484.6396     8596.5283   
 1085  16.4692  9372(97)         9567.3008     8600.1572   
 1086  16.4842  9686(98)         9664.9395     8603.7871   
 1087  16.4992  9752(99)         9780.7695     8607.4170   
 1088  16.5142  10084(100)        9919.4824     8611.0469   
 1089  16.5292  10406(102)        10088.4639     8614.6758   
 1090  16.5442  10571(103)        10299.0596     8618.3066   
 1091  16.5592  10971(105)        10567.1992     8621.9355   
 1092  16.5742  11638(108)        10912.9219     8625.5654   
 1093  16.5892  12123(110)        11357.9785     8629.1953   
 1094  16.6042  13069(114)        11922.4316     8632.8252   
 1095  16.6192  14225(119)        12622.6826     8636.4551   
 1096  16.6342  15414(124)        13469.8926     8640.0840   
 1097  16.6492  16613(129)        14464.6514     8643.7139   
 1098  16.6642  18136(135)        15575.1221     8647.3438   
 1099  16.6792  19663(140)        16691.7363     8650.9736   
 1100  16.6942  20897(145)        17583.3477     8654.6035   
 1101  16.7092  21591(147)        17953.0371     8658.2334   
 1102  16.7242  21280(146)        17641.5430     8661.8623   
 1103  16.7392  20682(144)        16766.4063     8665.4932   
 1104  16.7542  19252(139)        15612.3965     8669.1221   
 1105  16.7692  17609(133)        14446.5117     8672.7520   
 1106  16.7842  15872(126)        13440.9160     8676.3818   
 1107  16.7992  14580(121)        12676.0293     8680.0117   
 1108  16.8142  13264(115)        12160.7559     8683.6416   
 1109  16.8292  12463(112)        11852.0049     8687.2715   
 1110  16.8442  11749(108)        11671.6963     8690.9004   
 1111  16.8592  11382(107)        11532.0342     8694.5303   
 1112  16.8742  11031(105)        11373.7012     8698.1602   
 1113  16.8892  10881(104)        11187.0811     8701.7900   
 1114  16.9042  10764(104)        10994.2393     8705.4199   
 1115  16.9192  10456(102)        10820.7832     8709.0498   
 1116  16.9342  10473(102)        10683.5352     8712.6787   
 1117  16.9492  10572(103)        10589.7207     8716.3086   
 1118  16.9642  10340(102)        10539.5938     8719.9385   
 1119  16.9792  10132(101)        10529.4033     8723.5684   
 1120  16.9942  10266(101)        10554.1270     8727.1982   
 1121  17.0092  10301(101)        10609.4795     8730.8271   
 1122  17.0242  10431(102)        10692.8936     8734.4580   
 1123  17.0392  10321(102)        10803.6289     8738.0869   
 1124  17.0542  10437(102)        10942.7129     8741.7168   
 1125  17.0692  10533(103)        11112.9688     8745.3467   
 1126  17.0842  10924(105)        11319.5273     8748.9766   
 1127  17.0992  11010(105)        11571.2471     8752.6064   
 1128  17.1142  11317(106)        11882.4707     8756.2363   
 1129  17.1292  11667(108)        12275.8877     8759.8652   
 1130  17.1442  12096(110)        12776.8936     8763.4951   
 1131  17.1592  12615(112)        13419.9258     8767.1250   
 1132  17.1742  13321(115)        14237.8574     8770.7549   
 1133  17.1892  14183(119)        15259.6504     8774.3848   
 1134  17.2042  14970(122)        16507.6641     8778.0146   
 1135  17.2192  16188(127)        17992.3711     8781.6436   
 1136  17.2342  17377(132)        19692.8594     8785.2734   
 1137  17.2492  18758(137)        21501.6953     8788.9033   
 1138  17.2642  20397(143)        23144.2891     8792.5332   
 1139  17.2792  21660(147)        24179.3438     8796.1631   
 1140  17.2942  21997(148)        24226.0508     8799.7930   
 1141  17.3092  22000(148)        23279.6484     8803.4229   
 1142  17.3242  21627(147)        21707.1328     8807.0518   
 1143  17.3392  20408(143)        19961.0430     8810.6816   
 1144  17.3542  19247(139)        18380.0039     8814.3115   
 1145  17.3692  18114(135)        17154.0332     8817.9414   
 1146  17.3842  17005(130)        16356.8301     8821.5713   
 1147  17.3992  16495(128)        15985.4707     8825.2012   
 1148  17.4142  16220(127)        15998.4277     8828.8301   
 1149  17.4292  16224(127)        16347.4316     8832.4600   
 1150  17.4442  16405(128)        17001.0977     8836.0898   
 1151  17.4592  17071(131)        17959.6055     8839.7197   
 1152  17.4742  18397(136)        19264.4395     8843.3496   
 1153  17.4892  20148(142)        21001.9180     8846.9795   
 1154  17.5042  22306(149)        23297.0781     8850.6094   
 1155  17.5192  25283(159)        26298.5586     8854.2383   
 1156  17.5342  29347(171)        30155.0117     8857.8682   
 1157  17.5492  34201(185)        34993.2852     8861.4980   
 1158  17.5642  40100(200)        40907.9297     8865.1279   
 1159  17.5792  47036(217)        47925.4219     8868.7578   
 1160  17.5942  54104(233)        55870.0742     8872.3877   
 1161  17.6092  61217(247)        64065.1211     8876.0166   
 1162  17.6242  67457(260)        70971.4297     8879.6465   
 1163  17.6392  70077(265)        74385.0547     8883.2764   
 1164  17.6542  69384(263)        72766.5469     8886.9063   
 1165  17.6692  65578(256)        66542.3359     8890.5361   
 1166  17.6842  59016(243)        57659.6797     8894.1660   
 1167  17.6992  51299(226)        48174.1953     8897.7949   
 1168  17.7142  43192(208)        39493.6719     8901.4258   
 1169  17.7292  36550(191)        32336.2070     8905.0547   
 1170  17.7442  30879(176)        26899.6289     8908.6846   
 1171  17.7592  26514(163)        23044.5078     8912.3145   
 1172  17.7742  23585(154)        20477.5195     8915.9443   
 1173  17.7892  21356(146)        18871.8691     8919.5742   
 1174  17.8042  19500(140)        17943.5137     8923.2031   
 1175  17.8192  18477(136)        17479.3906     8926.8330   
 1176  17.8342  17636(133)        17334.3281     8930.4629   
 1177  17.8492  17239(131)        17416.8008     8934.0928   
 1178  17.8642  17508(132)        17675.0234     8937.7227   
 1179  17.8792  17538(132)        18085.6895     8941.3525   
 1180  17.8942  18009(134)        18646.3359     8944.9814   
 1181  17.9092  18406(136)        19369.8047     8948.6123   
 1182  17.9242  19301(139)        20280.0410     8952.2412   
 1183  17.9392  20624(144)        21410.6055     8955.8711   
 1184  17.9542  22188(149)        22804.9180     8959.5010   
 1185  17.9692  24511(157)        24519.2227     8963.1309   
 1186  17.9842  27252(165)        26636.4102     8966.7598   
 1187  17.9992  30903(176)        29276.7852     8970.3906   
 1188  18.0142  35053(187)        32617.7070     8974.0195   
 1189  18.0292  40742(202)        36906.6680     8977.6494   
 1190  18.0442  46990(217)        42456.0859     8981.2793   
 1191  18.0592  55491(236)        49614.8047     8984.9092   
 1192  18.0742  66065(257)        58735.8477     8988.5391   
 1193  18.0892  77751(279)        70149.0859     8992.1689   
 1194  18.1042  91581(303)        84139.8438     8995.7979   
 1195  18.1192  107020(327)       100884.2970     8999.4277   
 1196  18.1342  124567(353)       120160.2340     9003.0576   
 1197  18.1492  139263(373)       140668.1560     9006.6875   
 1198  18.1642  154608(393)       159346.7660     9010.3174   
 1199  18.1792  163566(404)       171896.9840     9013.9463   
 1200  18.1942  169699(412)       175560.5630     9017.5771   
 1201  18.2092  171019(414)       171562.5000     9021.2061   
 1202  18.2242  168423(410)       163830.6250     9024.8359   
 1203  18.2392  160850(401)       155798.8910     9028.4658   
 1204  18.2542  152386(390)       148462.3440     9032.0957   
 1205  18.2692  139840(374)       140257.0470     9035.7246   
 1206  18.2842  126203(355)       128813.0940     9039.3555   
 1207  18.2992  109159(330)       113497.4770     9042.9844   
 1208  18.3142  92902(305)        95966.7344     9046.6143   
 1209  18.3292  76827(277)        78574.5781     9050.2441   
 1210  18.3442  63582(252)        63053.9844     9053.8740   
 1211  18.3592  52431(229)        50253.7656     9057.5039   
 1212  18.3742  43175(208)        40344.7734     9061.1338   
 1213  18.3892  36587(191)        33062.8086     9064.7627   
 1214  18.4042  31277(177)        27915.3418     9068.3926   
 1215  18.4192  27219(165)        24360.6016     9072.0225   
 1216  18.4342  24185(156)        21919.9492     9075.6523   
 1217  18.4492  21594(147)        20221.7539     9079.2822   
 1218  18.4642  19582(140)        19003.0273     9082.9121   
 1219  18.4792  18062(134)        18088.1563     9086.5420   
 1220  18.4942  16566(129)        17363.4961     9090.1709   
 1221  18.5092  15902(126)        16758.0469     9093.8008   
 1222  18.5242  15325(124)        16228.8008     9097.4307   
 1223  18.5392  14680(121)        15751.0967     9101.0605   
 1224  18.5542  14178(119)        15311.4043     9104.6904   
 1225  18.5692  13677(117)        14902.9414     9108.3203   
 1226  18.5842  13161(115)        14522.7539     9111.9492   
 1227  18.5992  12946(114)        14169.4795     9115.5791   
 1228  18.6142  12688(113)        13842.3750     9119.2090   
 1229  18.6292  12275(111)        13540.8301     9122.8389   
 1230  18.6442  12194(110)        13263.8564     9126.4688   
 1231  18.6592  12132(110)        13010.1758     9130.0986   
 1232  18.6742  11925(109)        12778.3555     9133.7275   
 1233  18.6892  11745(108)        12566.7158     9137.3574   
 1234  18.7042  11686(108)        12438.8135     9140.9873   
 1235  18.7192  11630(108)        12263.3477     9144.6172   
 1236  18.7342  11399(107)        12103.0898     9148.2471   
 1237  18.7492  11297(106)        11956.5410     9151.8770   
 1238  18.7642  11247(106)        11822.9766     9155.5068   
 1239  18.7792  11027(105)        11694.1074     9159.1357   
 1240  18.7942  10934(105)        11581.3291     9162.7656   
 1241  18.8092  10975(105)        11477.7363     9166.3955   
 1242  18.8242  11066(105)        11382.4961     9170.0254   
 1243  18.8392  11001(105)        11294.8867     9173.6553   
 1244  18.8542  11002(105)        11214.3242     9177.2852   
 1245  18.8692  11015(105)        11140.2813     9180.9141   
 1246  18.8842  10998(105)        11072.3408     9184.5439   
 1247  18.8992  10860(104)        11010.1611     9188.1738   
 1248  18.9142  10769(104)        10953.5166     9191.8037   
 1249  18.9292  10819(104)        10901.3926     9195.4336   
 1250  18.9442  10676(103)        10855.4219     9199.0635   
 1251  18.9592  10683(103)        10814.7656     9202.6924   
 1252  18.9742  10756(104)        10779.5059     9206.3223   
 1253  18.9892  10662(103)        10749.8037     9209.9521   
 1254  19.0042  10703(103)        10737.5088     9213.5820   
 1255  19.0192  10865(104)        10720.0000     9217.2119   
 1256  19.0342  10467(102)        10709.3486     9220.8418   
 1257  19.0492  10950(105)        10706.6377     9224.4717   
 1258  19.0642  10810(104)        10713.6211     9228.1006   
 1259  19.0792  10692(103)        10732.9688     9231.7305   
 1260  19.0942  10731(104)        10766.7559     9233.7949   
 1261  19.1092  10842(104)        10819.5869     9234.4883   
 1262  19.1242  10887(104)        10897.5352     9235.1826   
 1263  19.1392  10808(104)        11004.9766     9235.8770   
 1264  19.1542  10622(103)        11145.5703     9236.5703   
 1265  19.1692  10750(104)        11321.5713     9237.2646   
 1266  19.1842  10910(104)        11531.4346     9237.9580   
 1267  19.1992  10847(104)        11763.6201     9238.6523   
 1268  19.2142  10555(103)        11985.7803     9239.3457   
 1269  19.2292  10440(102)        12139.1943     9240.0400   
 1270  19.2442  10120(101)        12160.3652     9240.7334   
 1271  19.2592  10168(101)        12033.4941     9241.4277   
 1272  19.2742  10152(101)        11783.5977     9242.1211   
 1273  19.2892  10419(102)        11481.4160     9242.8154   
 1274  19.3042  10554(103)        11181.3438     9243.5098   
 1275  19.3192  10726(104)        10916.1006     9244.2031   
 1276  19.3342  10592(103)        10699.9941     9244.8975   
 1277  19.3492  10703(103)        10534.5127     9245.5908   
 1278  19.3642  10812(104)        10404.4229     9246.2852   
 1279  19.3792  10626(103)        10319.3037     9246.9785   
 1280  19.3942  10579(103)        10260.4971     9247.6729   
 1281  19.4092  10813(104)        10220.1055     9248.3662   
 1282  19.4242  10672(103)        10192.3154     9249.0605   
 1283  19.4392  10571(103)        10173.0117     9249.7539   
 1284  19.4542  10582(103)        10159.4521     9250.4482   
 1285  19.4692  10488(102)        10149.8867     9251.1426   
 1286  19.4842  10490(102)        10143.2520     9251.8359   
 1287  19.4992  10456(102)        10138.9785     9252.5303   
 1288  19.5142  10379(102)        10136.8301     9253.2236   
 1289  19.5292  10517(103)        10136.8174     9253.9180   
 1290  19.5442  10605(103)        10139.1201     9254.6113   
 1291  19.5592  10584(103)        10144.0977     9255.3057   
 1292  19.5742  10714(104)        10152.0889     9255.9990   
 1293  19.5892  10549(103)        10163.6504     9256.6934   
 1294  19.6042  10588(103)        10179.3740     9257.3867   
 1295  19.6192  10663(103)        10199.9336     9258.0811   
 1296  19.6342  10730(104)        10226.0928     9258.7754   
 1297  19.6492  10837(104)        10258.7686     9259.4688   
 1298  19.6642  10895(104)        10299.1455     9260.1631   
 1299  19.6792  11023(105)        10348.9463     9260.8564   
 1300  19.6942  11246(106)        10410.7959     9261.5508   
 1301  19.7092  11599(108)        10488.6064     9262.2441   
 1302  19.7242  11577(108)        10542.7764     9262.9385   
 1303  19.7392  11682(108)        10671.3555     9263.6318   
 1304  19.7542  11895(109)        10836.5938     9264.3262   
 1305  19.7692  12493(112)        11046.7002     9265.0195   
 1306  19.7842  12852(113)        11309.1533     9265.7139   
 1307  19.7992  13483(116)        11629.7559     9266.4082   
 1308  19.8142  13979(118)        12010.8477     9267.1016   
 1309  19.8292  14654(121)        12444.9209     9267.7959   
 1310  19.8442  15219(123)        12900.1855     9268.4893   
 1311  19.8592  15508(125)        13302.9707     9269.1836   
 1312  19.8742  15664(125)        13541.9727     9269.8770   
 1313  19.8892  15501(125)        13531.5205     9270.5713   
 1314  19.9042  14610(121)        13264.3516     9271.2646   
 1315  19.9192  14133(119)        12836.3301     9271.9590   
 1316  19.9342  13509(116)        12357.5469     9272.6533   
 1317  19.9492  13024(114)        11908.8574     9273.3467   
 1318  19.9642  12284(111)        11534.8076     9274.0410   
 1319  19.9792  11997(110)        11252.3818     9274.7344   
 1320  19.9942  11736(108)        11074.1006     9275.4287   
 1321  20.0092  11405(107)        10962.1240     9276.1221   
 1322  20.0242  11486(107)        10915.8516     9276.8164   
 1323  20.0392  11222(106)        10922.2695     9277.5098   
 1324  20.0542  11266(106)        10971.5430     9278.2041   
 1325  20.0692  11286(106)        11057.8057     9278.8975   
 1326  20.0842  11550(107)        11179.3193     9279.5918   
 1327  20.0992  11488(107)        11338.8311     9280.2852   
 1328  20.1142  11587(108)        11544.0273     9280.9795   
 1329  20.1292  11814(109)        11807.6992     9281.6738   
 1330  20.1442  12089(110)        12147.3691     9282.3672   
 1331  20.1592  12585(112)        12583.6211     9283.0615   
 1332  20.1742  13217(115)        13137.4785     9283.7549   
 1333  20.1892  13926(118)        13828.4141     9284.4492   
 1334  20.2042  14820(122)        14671.9922     9285.1426   
 1335  20.2192  16026(127)        15673.9980     9285.8369   
 1336  20.2342  17267(131)        16814.3008     9286.5303   
 1337  20.2492  18370(136)        18009.5957     9287.2246   
 1338  20.2642  19709(140)        19066.6680     9287.9189   
 1339  20.2792  20059(142)        19601.2656     9288.6123   
 1340  20.2942  19679(140)        19562.8477     9289.3066   
 1341  20.3092  19060(138)        18858.3613     9290.0000   
 1342  20.3242  17891(134)        17721.5352     9290.6943   
 1343  20.3392  16818(130)        16438.9961     9291.3877   
 1344  20.3542  15724(125)        15223.3438     9292.0820   
 1345  20.3692  14564(121)        14125.9600     9292.7754   
 1346  20.3842  13861(118)        13322.4141     9293.4697   
 1347  20.3992  13159(115)        12742.7188     9294.1631   
 1348  20.4142  12710(113)        12357.1953     9294.8574   
 1349  20.4292  12283(111)        12126.7598     9295.5508   
 1350  20.4442  12146(110)        12012.9736     9296.2451   
 1351  20.4592  11857(109)        11985.7930     9296.9395   
 1352  20.4742  12027(110)        12023.4590     9297.6328   
 1353  20.4892  11916(109)        12112.1563     9298.3271   
 1354  20.5042  11824(109)        12244.4922     9299.0205   
 1355  20.5192  11975(109)        12418.2451     9299.7148   
 1356  20.5342  12067(110)        12635.3750     9300.4082   
 1357  20.5492  12213(111)        12901.2451     9301.1025   
 1358  20.5642  12233(111)        13224.2959     9301.7959   
 1359  20.5792  12829(113)        13615.6172     9302.4902   
 1360  20.5942  12758(113)        14088.4629     9303.1846   
 1361  20.6092  13010(114)        14658.4063     9303.8779   
 1362  20.6242  13657(117)        15343.5693     9304.5723   
 1363  20.6392  14183(119)        16165.6055     9305.2656   
 1364  20.6542  14787(122)        17153.3125     9305.9600   
 1365  20.6692  15652(125)        18348.0898     9306.6533   
 1366  20.6842  16860(130)        19811.5820     9307.3477   
 1367  20.6992  18308(135)        21635.7031     9308.0410   
 1368  20.7142  20205(142)        23948.7305     9308.7354   
 1369  20.7292  23041(152)        26912.9961     9309.4287   
 1370  20.7442  27375(165)        30715.3379     9310.1230   
 1371  20.7592  32501(180)        35547.5625     9310.8164   
 1372  20.7742  39561(199)        41593.8555     9311.5107   
 1373  20.7892  48676(221)        48987.3906     9312.2051   
 1374  20.8042  59521(244)        57802.2070     9312.8984   
 1375  20.8192  71776(268)        67879.8828     9313.5928   
 1376  20.8342  84336(290)        78535.3359     9314.2861   
 1377  20.8492  94279(307)        88142.4219     9314.9805   
 1378  20.8642  100157(316)       94154.4922     9315.6738   
 1379  20.8792  99766(316)        94301.7813     9316.3682   
 1380  20.8942  91385(302)        88322.2422     9317.0615   
 1381  20.9092  79287(282)        78119.3438     9317.7559   
 1382  20.9242  65027(255)        66261.6250     9318.4502   
 1383  20.9392  51464(227)        54725.5234     9319.1436   
 1384  20.9542  40882(202)        44633.6016     9319.8379   
 1385  20.9692  32345(180)        36453.9297     9320.5313   
 1386  20.9842  26953(164)        30224.3711     9321.2256   
 1387  20.9992  22986(152)        25735.9492     9321.9189   
 1388  21.0142  20899(145)        22673.5156     9322.6133   
 1389  21.0292  19352(139)        20715.0820     9323.3066   
 1390  21.0442  19002(138)        19591.9180     9324.0010   
 1391  21.0592  18544(136)        19106.4219     9324.6943   
 1392  21.0742  18642(137)        19125.2227     9325.3887   
 1393  21.0892  19363(139)        19564.5957     9326.0830   
 1394  21.1042  20112(142)        20374.0527     9326.7764   
 1395  21.1192  21633(147)        21520.3633     9327.4707   
 1396  21.1342  23489(153)        22961.9629     9328.1641   
 1397  21.1492  25064(158)        24600.1445     9328.8584   
 1398  21.1642  26502(163)        26203.3086     9329.5518   
 1399  21.1792  27553(166)        27366.5176     9330.2461   
 1400  21.1942  27278(165)        27637.0918     9330.9395   
 1401  21.2092  26495(163)        26817.6406     9331.6338   
 1402  21.2242  24548(157)        25125.4883     9332.3271   
 1403  21.2392  22266(149)        23004.4883     9333.0215   
 1404  21.2542  19864(141)        20859.8242     9333.7158   
 1405  21.2692  18046(134)        18950.9688     9334.4092   
 1406  21.2842  16655(129)        17407.0547     9335.1035   
 1407  21.2992  15923(126)        16268.7852     9335.7969   
 1408  21.3142  15507(125)        15523.0234     9336.4912   
 1409  21.3292  15162(123)        15130.9775     9337.1846   
 1410  21.3442  15416(124)        15047.4727     9337.8789   
 1411  21.3592  15758(126)        15230.3203     9338.5723   
 1412  21.3742  16188(127)        15650.0127     9339.2666   
 1413  21.3892  16838(130)        16276.0977     9339.9600   
 1414  21.4042  17781(133)        17067.4551     9340.6543   
 1415  21.4192  17800(133)        17938.4453     9341.3486   
 1416  21.4342  17980(134)        18719.5664     9342.0420   
 1417  21.4492  18106(135)        19164.1133     9342.7363   
 1418  21.4642  18096(135)        19061.9219     9343.4297   
 1419  21.4792  17580(133)        18395.0000     9344.1240   
 1420  21.4942  16813(130)        17343.9121     9344.8174   
 1421  21.5092  15995(126)        16147.4395     9345.5117   
 1422  21.5242  15119(123)        14989.3574     9346.2051   
 1423  21.5392  14275(119)        13974.6719     9346.8994   
 1424  21.5542  13488(116)        13145.5625     9347.5928   
 1425  21.5692  12835(113)        12508.6426     9348.2871   
 1426  21.5842  12392(111)        12029.7344     9348.9814   
 1427  21.5992  12155(110)        11681.0137     9349.6748   
 1428  21.6142  12125(110)        11429.3672     9350.3691   
 1429  21.6292  11782(109)        11247.7529     9351.0625   
 1430  21.6442  11807(109)        11116.1113     9351.7568   
 1431  21.6592  11785(109)        11020.2275     9352.4502   
 1432  21.6742  11747(108)        10950.2236     9353.1445   
 1433  21.6892  11763(108)        10899.2979     9353.8379   
 1434  21.7042  11864(109)        10862.8955     9354.5322   
 1435  21.7192  12020(110)        10838.0127     9355.2256   
 1436  21.7342  12048(110)        10822.5713     9355.9199   
 1437  21.7492  12089(110)        10814.8779     9356.6143   
 1438  21.7642  12230(111)        10813.2998     9357.3076   
 1439  21.7792  12156(110)        10816.5771     9358.0020   
 1440  21.7942  12278(111)        10824.7539     9358.6953   
 1441  21.8092  11847(109)        10839.6201     9359.3896   
 1442  21.8242  11681(108)        10864.0078     9360.0830   
 1443  21.8392  11672(108)        10900.9033     9360.7773   
 1444  21.8542  11409(107)        10953.1152     9361.4707   
 1445  21.8692  11355(107)        11023.4492     9362.1650   
 1446  21.8842  11182(106)        11115.0293     9362.8584   
 1447  21.8992  11162(106)        11231.7822     9363.5527   
 1448  21.9142  11415(107)        11378.9512     9364.2471   
 1449  21.9292  11328(106)        11563.8594     9364.9404   
 1450  21.9442  11432(107)        11796.4707     9365.6348   
 1451  21.9592  11800(109)        12089.5313     9366.3281   
 1452  21.9742  12122(110)        12458.5215     9367.0225   
 1453  21.9892  12406(111)        12920.9531     9367.7158   
 1454  22.0042  12756(113)        13495.5596     9368.4102   
 1455  22.0192  13193(115)        14199.8301     9369.1035   
 1456  22.0342  13832(118)        15059.9473     9369.7979   
 1457  22.0492  14671(121)        16091.0127     9370.4912   
 1458  22.0642  15496(124)        17295.7949     9371.1855   
 1459  22.0792  16781(130)        18636.5996     9371.8799   
 1460  22.0942  17739(133)        20009.1250     9372.5732   
 1461  22.1092  19073(138)        21263.2852     9373.2676   
 1462  22.1242  20354(143)        22302.6992     9373.9609   
 1463  22.1392  22144(149)        23182.3945     9374.6553   
 1464  22.1542  23423(153)        24075.6641     9375.3486   
 1465  22.1692  25165(159)        25140.4023     9376.0430   
 1466  22.1842  26557(163)        26396.3945     9376.7363   
 1467  22.1992  27877(167)        27642.3672     9377.4307   
 1468  22.2142  28751(170)        28447.2480     9378.1250   
 1469  22.2292  28116(168)        28332.7813     9378.8184   
 1470  22.2442  27185(165)        27111.1523     9379.5127   
 1471  22.2592  25394(159)        25026.1621     9380.2061   
 1472  22.2742  23597(154)        22538.4082     9380.9004   
 1473  22.2892  21296(146)        20055.1445     9381.5938   
 1474  22.3042  19110(138)        17828.6797     9382.2881   
 1475  22.3192  17624(133)        15971.8730     9382.9814   
 1476  22.3342  16019(127)        14508.6357     9383.6758   
 1477  22.3492  14427(120)        13405.3037     9384.3691   
 1478  22.3642  13317(115)        12600.8594     9385.0635   
 1479  22.3792  12649(112)        12027.7070     9385.7568   
 1480  22.3942  12372(111)        11623.9365     9386.4512   
 1481  22.4092  11956(109)        11339.4863     9387.1455   
 1482  22.4242  11528(107)        11136.9414     9387.8389   
 1483  22.4392  11335(106)        10982.6201     9388.5332   
 1484  22.4542  11123(105)        10872.2402     9389.2266   
 1485  22.4692  10981(105)        10786.5820     9389.9209   
 1486  22.4842  10859(104)        10717.8184     9390.6143   
 1487  22.4992  10552(103)        10661.2119     9391.3086   
 1488  22.5142  10586(103)        10614.1982     9392.0020   
 1489  22.5292  10544(103)        10575.6738     9392.6963   
 1490  22.5442  10593(103)        10545.5186     9393.3906   
 1491  22.5592  10553(103)        10524.2188     9394.0840   
 1492  22.5742  10711(103)        10512.5488     9394.7783   
 1493  22.5892  10741(104)        10511.3662     9395.4717   
 1494  22.6042  10474(102)        10521.4316     9396.1660   
 1495  22.6192  10505(102)        10543.1055     9396.8594   
 1496  22.6342  10326(102)        10575.6406     9397.5537   
 1497  22.6492  10469(102)        10615.7080     9398.2471   
 1498  22.6642  10337(102)        10655.5117     9398.9414   
 1499  22.6792  10488(102)        10682.8184     9399.6348   
 1500  22.6942  10404(102)        10686.1904     9400.3291   
 1501  22.7092  10325(102)        10663.2744     9401.0225   
 1502  22.7242  10361(102)        10622.8809     9401.7168   
 1503  22.7392  10390(102)        10574.5430     9398.4072   
 1504  22.7542  10284(101)        10539.0430     9390.5225   
 1505  22.7692  10449(102)        10509.3203     9382.6387   
 1506  22.7842  10230(101)        10499.2920     9374.7529   
 1507  22.7992  10479(102)        10511.1699     9366.8682   
 1508  22.8142  10299(101)        10546.0557     9358.9844   
 1509  22.8292  10782(104)        10604.8525     9351.0986   
 1510  22.8442  10748(104)        10689.0967     9343.2139   
 1511  22.8592  10579(103)        10801.8584     9335.3301   
 1512  22.8742  10690(103)        10948.5742     9327.4443   
 1513  22.8892  10930(105)        11137.7207     9319.5596   
 1514  22.9042  11202(106)        11381.3350     9311.6758   
 1515  22.9192  11896(109)        11694.8584     9303.7900   
 1516  22.9342  11789(109)        12096.2109     9295.9053   
 1517  22.9492  12666(113)        12606.2607     9288.0205   
 1518  22.9642  13575(117)        13241.1055     9280.1357   
 1519  22.9792  14393(120)        14018.3730     9272.2510   
 1520  22.9942  15059(123)        14946.0674     9264.3662   
 1521  23.0092  15776(126)        16010.1670     9256.4824   
 1522  23.0242  16418(128)        17148.8047     9248.5967   
 1523  23.0392  17026(130)        18221.3164     9240.7119   
 1524  23.0542  16983(130)        18947.8867     9232.8281   
 1525  23.0692  16917(130)        19245.1328     9224.9424   
 1526  23.0842  16666(129)        18951.8242     9217.0576   
 1527  23.0992  16094(127)        18133.7070     9209.1729   
 1528  23.1142  15189(123)        16972.2891     9201.2881   
 1529  23.1292  14412(120)        15680.4219     9193.4033   
 1530  23.1442  13626(117)        14431.7754     9185.5186   
 1531  23.1592  12923(114)        13329.9043     9177.6338   
 1532  23.1742  12049(110)        12419.0781     9169.7490   
 1533  23.1892  11898(109)        11702.2676     9161.8643   
 1534  23.2042  11167(106)        11159.1621     9153.9795   
 1535  23.2192  10953(105)        10759.2334     9146.0947   
 1536  23.2342  10801(104)        10470.0244     9138.2100   
 1537  23.2492  10734(104)        10262.4609     9130.3252   
 1538  23.2642  10433(102)        10113.0078     9122.4404   
 1539  23.2792  10459(102)        10003.7588     9114.5557   
 1540  23.2942  10339(102)        9921.7881     9106.6699   
 1541  23.3092  10232(101)        9858.1094     9098.7861   
 1542  23.3242  9949(100)         9806.6143     9090.9014   
 1543  23.3392  10077(100)        9763.2881     9083.0156   
 1544  23.3542  9660(98)         9725.6006     9075.1318   
 1545  23.3692  9652(98)         9691.9961     9067.2471   
 1546  23.3842  9573(98)         9650.0820     9059.3623   
 1547  23.3992  9777(99)         9622.5859     9051.4775   
 1548  23.4142  9868(99)         9597.6426     9043.5928   
 1549  23.4292  10079(100)        9575.2119     9035.7080   
 1550  23.4442  10273(101)        9559.0020     9027.8232   
 1551  23.4592  10123(101)        9541.8271     9019.9385   
 1552  23.4742  10081(100)        9527.7822     9012.0537   
 1553  23.4892  10076(100)        9516.3604     9004.1680   
 1554  23.5042  9832(99)         9508.1221     8996.2842   
 1555  23.5192  9810(99)         9503.3477     8988.3994   
 1556  23.5342  9764(99)         9502.4072     8980.5137   
 1557  23.5492  9811(99)         9505.7754     8972.6299   
 1558  23.5642  9712(99)         9514.0479     8964.7451   
 1559  23.5792  9598(98)         9527.9717     8956.8594   
 1560  23.5942  9698(98)         9548.4453     8948.9756   
 1561  23.6092  9846(99)         9576.5400     8941.0908   
 1562  23.6242  9943(100)         9613.5098     8933.2051   
 1563  23.6392  10002(100)        9660.8047     8925.3203   
 1564  23.6542  9975(100)         9720.1787     8917.4365   
 1565  23.6692  9929(100)         9787.6650     8909.5508   
 1566  23.6842  9948(100)         9878.6992     8901.6660   
 1567  23.6992  10013(100)        9991.1592     8893.7822   
 1568  23.7142  10280(101)        10130.7324     8885.8965   
 1569  23.7292  10165(101)        10304.6445     8878.0117   
 1570  23.7442  10243(101)        10521.3643     8870.1279   
 1571  23.7592  10449(102)        10789.9355     8862.2432   
 1572  23.7742  10543(103)        11120.1328     8854.3574   
 1573  23.7892  11014(105)        11523.3750     8846.4736   
 1574  23.8042  11400(107)        12013.1787     8838.5889   
 1575  23.8192  12078(110)        12601.9229     8830.7031   
 1576  23.8342  13030(114)        13293.1777     8822.8184   
 1577  23.8492  13907(118)        14067.5371     8814.9346   
 1578  23.8642  15070(123)        14859.1807     8807.0488   
 1579  23.8792  16381(128)        15534.0488     8799.1641   
 1580  23.8942  17101(131)        15909.2441     8791.2803   
 1581  23.9092  17314(132)        15843.5918     8783.3945   
 1582  23.9242  16986(130)        15338.8848     8775.5098   
 1583  23.9392  15812(126)        14536.0273     8767.6260   
 1584  23.9542  14560(121)        13609.4785     8759.7402   
 1585  23.9692  13177(115)        12699.7139     8751.8555   
 1586  23.9842  11902(109)        11887.4619     8743.9717   
 1587  23.9992  11086(105)        11207.9180     8736.0859   
 1588  24.0142  10665(103)        10666.8799     8728.2012   
 1589  24.0292  10368(102)        10252.1963     8720.3164   
 1590  24.0442  9921(100)         9943.2471     8712.4316   
 1591  24.0592  9810(99)         9717.3252     8704.5469   
 1592  24.0742  9836(99)         9562.1113     8696.6621   
 1593  24.0892  9682(98)         9442.8887     8688.7773   
 1594  24.1042  9648(98)         9354.9570     8680.8926   
 1595  24.1192  9626(98)         9288.5635     8673.0078   
 1596  24.1342  9551(98)         9236.7012     8665.1240   
 1597  24.1492  9526(98)         9194.6289     8657.2383   
 1598  24.1642  9533(98)         9159.1494     8649.3535   
 1599  24.1792  9459(97)         9128.1572     8641.4697   
 1600  24.1942  9224(96)         9100.3262     8633.5840   
 1601  24.2092  9239(96)         9074.8682     8625.6992   
 1602  24.2242  9204(96)         9051.3311     8617.8145   
 1603  24.2392  9226(96)         9029.4844     8609.9297   
 1604  24.2542  9072(95)         9009.2324     8602.0449   
 1605  24.2692  9156(96)         8990.5518     8594.1602   
 1606  24.2842  9494(97)         8973.4570     8586.2754   
 1607  24.2992  9242(96)         8957.9893     8578.3906   
 1608  24.3142  9137(96)         8944.1953     8570.5059   
 1609  24.3292  9144(96)         8932.1377     8562.6211   
 1610  24.3442  9244(96)         8921.9121     8554.7363   
 1611  24.3592  9190(96)         8908.6494     8546.8516   
 1612  24.3742  9059(95)         8902.3682     8538.9658   
 1613  24.3892  9098(95)         8898.2217     8531.0820   
 1614  24.4042  9173(96)         8896.3643     8523.1973   
 1615  24.4192  9046(95)         8897.0020     8515.3115   
 1616  24.4342  9093(95)         8900.4043     8507.4277   
 1617  24.4492  9074(95)         8906.9551     8499.5430   
 1618  24.4642  9079(95)         8917.2197     8491.6572   
 1619  24.4792  9058(95)         8918.6855     8483.7734   
 1620  24.4942  9171(96)         8939.3467     8475.8887   
 1621  24.5092  9065(95)         8967.2246     8468.0039   
 1622  24.5242  8965(95)         9004.2139     8460.1191   
 1623  24.5392  8989(95)         9052.4648     8452.2344   
 1624  24.5542  9022(95)         9115.1084     8445.1826   
 1625  24.5692  9054(95)         9194.3193     8438.8584   
 1626  24.5842  9003(95)         9291.3652     8432.5361   
 1627  24.5992  8966(95)         9407.4707     8426.2129   
 1628  24.6142  8839(94)         9541.7031     8419.8896   
 1629  24.6292  8988(95)         9688.0137     8413.5664   
 1630  24.6442  8969(95)         9831.1611     8407.2432   
 1631  24.6592  8910(94)         9944.5605     8400.9199   
 1632  24.6742  8986(95)         9997.3457     8394.5967   
 1633  24.6892  8856(94)         9972.1162     8388.2734   
 1634  24.7042  8889(94)         9877.5693     8381.9502   
 1635  24.7192  8752(94)         9742.3750     8375.6270   
 1636  24.7342  9010(95)         9594.4824     8369.3037   
 1637  24.7492  8854(94)         9456.2012     8362.9805   
 1638  24.7642  8938(95)         9339.6787     8356.6572   
 1639  24.7792  8898(94)         9250.1543     8350.3350   
 1640  24.7942  9020(95)         9188.5781     8344.0107   
 1641  24.8092  9084(95)         9153.5273     8337.6875   
 1642  24.8242  9038(95)         9142.5244     8331.3652   
 1643  24.8392  9184(96)         9153.0322     8325.0410   
 1644  24.8542  9111(95)         9183.0273     8318.7188   
 1645  24.8692  8987(95)         9231.2695     8312.3955   
 1646  24.8842  9096(95)         9297.3857     8306.0723   
 1647  24.8992  9150(96)         9381.8945     8299.7490   
 1648  24.9142  9316(97)         9486.2285     8293.4258   
 1649  24.9292  9360(97)         9613.0293     8287.1025   
 1650  24.9442  9277(96)         9766.5391     8280.7793   
 1651  24.9592  9617(98)         9952.7549     8274.4561   
 1652  24.9742  9849(99)         10181.6396     8268.1328   
 1653  24.9892  9997(100)        10465.3574     8261.8096   
 1654  25.0042  10462(102)        10819.6318     8255.4863   
 1655  25.0192  10740(104)        11263.0537     8249.1641   
 1656  25.0342  11306(106)        11815.9854     8242.8398   
 1657  25.0492  12085(110)        12499.0078     8236.5166   
 1658  25.0642  13154(115)        13331.6875     8230.1943   
 1659  25.0792  14166(119)        14329.1133     8223.8701   
 1660  25.0942  15450(124)        15493.7129     8217.5469   
 1661  25.1092  17044(131)        16793.4297     8211.2246   
 1662  25.1242  18492(136)        18132.7148     8204.9004   
 1663  25.1392  19993(141)        19315.9609     8198.5781   
 1664  25.1542  21162(145)        20067.6875     8192.2549   
 1665  25.1692  21370(146)        20152.0957     8185.9312   
 1666  25.1842  21037(145)        19530.0449     8179.6079   
 1667  25.1992  20057(142)        18384.8672     8173.2852   
 1668  25.2142  18083(134)        16992.5508     8166.9614   
 1669  25.2292  16495(128)        15589.7080     8160.6387   
 1670  25.2442  15047(123)        14326.0371     8154.3154   
 1671  25.2592  13704(117)        13276.3691     8147.9927   
 1672  25.2742  12893(114)        12464.4082     8141.6689   
 1673  25.2892  12314(111)        11882.3115     8135.3462   
 1674  25.3042  11950(109)        11502.6406     8129.0229   
 1675  25.3192  11561(108)        11285.3809     8122.6992   
 1676  25.3342  11543(107)        11179.2100     8116.3765   
 1677  25.3492  11428(107)        11116.1348     8110.0537   
 1678  25.3642  11370(107)        11040.2881     8103.7295   
 1679  25.3792  10892(104)        10895.6211     8097.4067   
 1680  25.3942  10732(104)        10678.2188     8091.0840   
 1681  25.4092  10715(104)        10409.6289     8084.7603   
 1682  25.4242  10176(101)        10125.3857     8078.4370   
 1683  25.4392  10030(100)        9853.8535     8072.1143   
 1684  25.4542  9746(99)         9611.6006     8065.7905   
 1685  25.4692  9341(97)         9405.7598     8059.4678   
 1686  25.4842  9222(96)         9237.1621     8053.1445   
 1687  25.4992  9171(96)         9103.0352     8046.8208   
 1688  25.5142  8812(94)         8998.8564     8040.4980   
 1689  25.5292  8913(94)         8919.5586     8034.1753   
 1690  25.5442  8792(94)         8860.4365     8027.8516   
 1691  25.5592  8879(94)         8817.5996     8021.5283   
 1692  25.5742  8728(93)         8788.0605     8015.2056   
 1693  25.5892  8715(93)         8769.7168     8008.8818   
 1694  25.6042  8860(94)         8761.2119     8002.5586   
 1695  25.6192  8728(93)         8761.7920     7996.2358   
 1696  25.6342  8671(93)         8771.1973     7989.9131   
 1697  25.6492  8771(94)         8789.6221     7983.5894   
 1698  25.6642  8809(94)         8817.7148     7977.2661   
 1699  25.6792  8758(94)         8856.6934     7970.9434   
 1700  25.6942  8906(94)         8908.5107     7964.6196   
 1701  25.7092  8887(94)         8976.0488     7958.2969   
 1702  25.7242  9146(96)         9070.3857     7951.9736   
 1703  25.7392  9255(96)         9182.8047     7945.6499   
 1704  25.7542  9648(98)         9326.6621     7939.3271   
 1705  25.7692  9640(98)         9509.2832     7933.0039   
 1706  25.7842  10104(101)        9738.5137     7926.6802   
 1707  25.7992  10431(102)        10022.1074     7920.3574   
 1708  25.8142  10770(104)        10367.0830     7914.0347   
 1709  25.8292  11630(108)        10777.7109     7907.7109   
 1710  25.8442  12263(111)        11250.6748     7901.3877   
 1711  25.8592  12803(113)        11766.0762     7895.0649   
 1712  25.8742  13159(115)        12274.1191     7888.7412   
 1713  25.8892  13359(116)        12687.7422     7882.4185   
 1714  25.9042  13737(117)        12902.4023     7876.0952   
 1715  25.9192  13716(117)        12848.0820     7869.7715   
 1716  25.9342  13380(116)        12534.3066     7863.4487   
 1717  25.9492  13095(114)        12040.0547     7857.1255   
 1718  25.9642  12401(111)        11464.8115     7850.8018   
 1719  25.9792  11485(107)        10889.9277     7844.4790   
 1720  25.9942  11161(106)        10366.2578     7838.1563   
 1721  26.0092  10364(102)        9918.6924     7831.8330   
 1722  26.0242  9911(100)         9554.1709     7825.5093   
 1723  26.0392  9685(98)         9268.8271     7819.1865   
 1724  26.0542  9265(96)         9052.8232     7812.8638   
 1725  26.0692  8938(95)         8894.1309     7806.5400   
 1726  26.0842  8816(94)         8780.9258     7800.2168   
 1727  26.0992  8757(94)         8702.8115     7793.8940   
 1728  26.1142  8709(93)         8651.3340     7787.5703   
 1729  26.1292  8580(93)         8620.4189     7781.2471   
 1730  26.1442  8524(92)         8605.4707     7774.9243   
 1731  26.1592  8357(91)         8603.4980     7768.6006   
 1732  26.1742  8334(91)         8612.7129     7762.2778   
 1733  26.1892  8296(91)         8632.2998     7755.9546   
 1734  26.2042  8176(90)         8662.2725     7749.6309   
 1735  26.2192  8496(92)         8703.3809     7743.3081   
 1736  26.2342  8543(92)         8751.7217     7736.9854   
 1737  26.2492  8530(92)         8820.3799     7730.6616   
 1738  26.2642  8516(92)         8906.8340     7724.3384   
 1739  26.2792  8556(92)         9014.7627     7718.0156   
 1740  26.2942  8683(93)         9148.4990     7711.6919   
 1741  26.3092  8769(94)         9312.8877     7705.3691   
 1742  26.3242  8894(94)         9513.3428     7699.0459   
 1743  26.3392  8952(95)         9757.9219     7692.7222   
 1744  26.3542  9258(96)         10048.7051     7686.3994   
 1745  26.3692  9617(98)         10393.7363     7680.0762   
 1746  26.3842  9988(100)        10796.3223     7673.7534   
 1747  26.3992  10371(102)        11252.7539     7667.4297   
 1748  26.4142  10852(104)        11746.7930     7661.1069   
 1749  26.4292  11332(106)        12250.0742     7654.7837   
 1750  26.4442  11888(109)        12735.8457     7648.4600   
 1751  26.4592  12386(111)        13202.6318     7642.1372   
 1752  26.4742  13185(115)        13685.4258     7635.8145   
 1753  26.4892  13933(118)        14239.4688     7629.4907   
 1754  26.5042  14775(122)        14912.0352     7623.1675   
 1755  26.5192  15729(125)        15718.7207     7616.8447   
 1756  26.5342  16622(129)        16620.7227     7610.5210   
 1757  26.5492  17654(133)        17500.8730     7604.1978   
 1758  26.5642  18314(135)        18161.3730     7597.8750   
 1759  26.5792  18407(136)        18382.6250     7591.5513   
 1760  26.5942  18260(135)        18042.6465     7585.2285   
 1761  26.6092  17566(133)        17196.6641     7578.9053   
 1762  26.6242  16444(128)        16030.6367     7572.5815   
 1763  26.6392  15150(123)        14750.4551     7566.2588   
 1764  26.6542  13666(117)        13509.1016     7559.9360   
 1765  26.6692  12287(111)        12395.0938     7553.6123   
 1766  26.6842  11408(107)        11447.8809     7547.2891   
 1767  26.6992  10379(102)        10674.2793     7540.9663   
 1768  26.7142  9892(99)         10062.0352     7534.6426   
 1769  26.7292  9381(97)         9589.1973     7528.3193   
 1770  26.7442  9074(95)         9230.1289     7521.9966   
 1771  26.7592  8883(94)         8960.0811     7515.6738   
 1772  26.7742  8656(93)         8757.4297     7509.3501   
 1773  26.7892  8394(92)         8604.6367     7503.0269   
 1774  26.8042  8314(91)         8488.0166     7496.7041   
 1775  26.8192  8306(91)         8397.2617     7490.3804   
 1776  26.8342  8085(90)         8324.7188     7484.0576   
 1777  26.8492  8150(90)         8264.6445     7477.7344   
 1778  26.8642  7987(89)         8212.7969     7471.4106   
 1779  26.8792  7831(88)         8166.2715     7465.0879   
 1780  26.8942  7951(89)         8123.3945     7458.7646   
 1781  26.9092  7813(88)         8086.3633     7452.4409   
 1782  26.9242  7774(88)         8049.5610     7446.1182   
 1783  26.9392  7803(88)         8015.5122     7439.7954   
 1784  26.9542  7760(88)         7984.5044     7433.4717   
 1785  26.9692  7651(87)         7956.6152     7427.1484   
 1786  26.9842  7782(88)         7931.8857     7420.8257   
 1787  26.9992  7488(87)         7910.3438     7414.5020   
 1788  27.0142  7680(88)         7892.0283     7408.1792   
 1789  27.0292  7703(88)         7876.9937     7401.8560   
 1790  27.0442  7746(88)         7865.3569     7395.5322   
 1791  27.0592  7678(88)         7856.3135     7389.2095   
 1792  27.0742  7667(88)         7852.2827     7382.8867   
 1793  27.0892  7788(88)         7853.0327     7376.5625   
 1794  27.1042  7747(88)         7858.8394     7370.2397   
 1795  27.1192  7630(87)         7870.9648     7363.9170   
 1796  27.1342  7696(88)         7890.6348     7357.5938   
 1797  27.1492  7728(88)         7919.2485     7351.2700   
 1798  27.1642  7674(88)         7958.2905     7344.9473   
 1799  27.1792  7738(88)         8009.2588     7338.6245   
 1800  27.1942  7578(87)         8073.4790     7332.3008   
 1801  27.2092  7754(88)         8151.6357     7325.9775   
 1802  27.2242  7559(87)         8242.8213     7319.6548   
 1803  27.2392  7613(87)         8342.6504     7313.3311   
 1804  27.2542  7596(87)         8440.7090     7307.0083   
 1805  27.2692  7650(87)         8519.3135     7300.6851   
 1806  27.2842  7558(87)         8557.3359     7294.3613   
 1807  27.2992  7578(87)         8540.2617     7288.0386   
 1808  27.3142  7633(87)         8469.4697     7281.7153   
 1809  27.3292  7535(87)         8362.4961     7273.9307   
 1810  27.3442  7395(86)         8235.3486     7266.0420   
 1811  27.3592  7642(87)         8108.1240     7258.1533   
 1812  27.3742  7573(87)         7991.4746     7250.2637   
 1813  27.3892  7451(86)         7890.7607     7242.3750   
 1814  27.4042  7495(87)         7807.7188     7234.4863   
 1815  27.4192  7656(87)         7741.9380     7226.5972   
 1816  27.4342  7470(86)         7691.8687     7218.7085   
 1817  27.4492  7488(87)         7655.4756     7210.8198   
 1818  27.4642  7544(87)         7630.7559     7202.9302   
 1819  27.4792  7640(87)         7616.0571     7195.0415   
 1820  27.4942  7543(87)         7610.2212     7187.1528   
 1821  27.5092  7777(88)         7612.6504     7179.2642   
 1822  27.5242  7918(89)         7623.2725     7171.3750   
 1823  27.5392  7826(88)         7642.4517     7163.4863   
 1824  27.5542  7993(89)         7670.8940     7155.5977   
 1825  27.5692  8020(90)         7709.5332     7147.7080   
 1826  27.5842  8287(91)         7749.8013     7139.8193   
 1827  27.5992  8471(92)         7811.7695     7131.9307   
 1828  27.6142  8717(93)         7885.8423     7124.0410   
 1829  27.6292  9178(96)         7970.1826     7116.1528   
 1830  27.6442  9600(98)         8059.1870     7108.2642   
 1831  27.6592  9694(98)         8141.4468     7100.3745   
 1832  27.6742  10017(100)        8199.8867     7092.4858   
 1833  27.6892  10061(100)        8217.2188     7084.5972   
 1834  27.7042  10126(101)        8185.2441     7076.7075   
 1835  27.7192  9968(100)         8110.1309     7068.8188   
 1836  27.7342  9673(98)         8008.0054     7060.9307   
 1837  27.7492  9353(97)         7896.1328     7053.0410   
 1838  27.7642  8978(95)         7787.4165     7045.1523   
 1839  27.7792  8652(93)         7689.5933     7037.2637   
 1840  27.7942  8469(92)         7605.6753     7029.3740   
 1841  27.8092  8208(91)         7535.1919     7021.4854   
 1842  27.8242  7859(89)         7480.3525     7013.5967   
 1843  27.8392  7789(88)         7438.0449     7005.7070   
 1844  27.8542  7776(88)         7406.3691     6997.8188   
 1845  27.8692  7605(87)         7383.4355     6989.9302   
 1846  27.8842  7623(87)         7367.5923     6982.0415   
 1847  27.8992  7232(85)         7357.5098     6974.1519   
 1848  27.9142  7405(86)         7352.2021     6966.2632   
 1849  27.9292  7367(86)         7350.9985     6958.3745   
 1850  27.9442  7309(85)         7353.5078     6950.4849   
 1851  27.9592  7328(86)         7359.5801     6942.5967   
 1852  27.9742  7368(86)         7369.2661     6934.7080   
 1853  27.9892  7301(85)         7384.1279     6926.8184   
 1854  28.0042  7440(86)         7402.1221     6918.9297   
 1855  28.0192  7528(87)         7424.6499     6911.0410   
 1856  28.0342  7479(86)         7452.5767     6903.1514   
 1857  28.0492  7365(86)         7486.6533     6895.2627   
 1858  28.0642  7373(86)         7527.7603     6887.3745   
 1859  28.0792  7404(86)         7576.9126     6879.4849   
 1860  28.0942  7522(87)         7635.2925     6871.5962   
 1861  28.1092  7659(88)         7704.3765     6863.7075   
 1862  28.1242  7542(87)         7786.0728     6855.8179   
 1863  28.1392  7577(87)         7882.9019     6847.9292   
 1864  28.1542  7703(88)         7998.3232     6840.0410   
 1865  28.1692  7983(89)         8136.9897     6832.1514   
 1866  28.1842  7933(89)         8305.6328     6824.2627   
 1867  28.1992  8080(90)         8510.3955     6816.3740   
 1868  28.2142  8581(93)         8762.2461     6808.4844   
 1869  28.2292  8694(93)         9068.8789     6800.5957   
 1870  28.2442  9208(96)         9442.5518     6792.7070   
 1871  28.2592  10291(101)        9894.5664     6784.8188   
 1872  28.2742  11235(106)        10435.5596     6776.9292   
 1873  28.2892  12064(110)        11072.8574     6769.0405   
 1874  28.3042  13277(115)        11805.4404     6761.1519   
 1875  28.3192  14493(120)        12613.1631     6753.2622   
 1876  28.3342  15876(126)        13440.2129     6745.3735   
 1877  28.3492  16750(129)        14181.4727     6737.4849   
 1878  28.3642  17428(132)        14690.4922     6729.5952   
 1879  28.3792  17720(133)        14829.2217     6721.7070   
 1880  28.3942  17126(131)        14550.5156     6713.8184   
 1881  28.4092  16194(127)        13917.7217     6705.9287   
 1882  28.4242  15371(124)        13069.9258     6698.0400   
 1883  28.4392  14027(118)        12147.3486     6690.1514   
 1884  28.4542  12668(113)        11252.3066     6682.2617   
 1885  28.4692  11694(108)        10444.2109     6674.3730   
 1886  28.4842  10508(103)        9749.4150     6666.4849   
 1887  28.4992  9663(98)         9173.3213     6658.5952   
 1888  28.5142  9053(95)         8709.1680     6650.7065   
 1889  28.5292  8500(92)         8343.4102     6642.8179   
 1890  28.5442  8172(90)         8059.9385     6634.9282   
 1891  28.5592  7829(88)         7842.7461     6627.0396   
 1892  28.5742  7730(88)         7677.2798     6619.1509   
 1893  28.5892  7610(87)         7551.3057     6611.2617   
 1894  28.6042  7305(85)         7455.0718     6603.3730   
 1895  28.6192  7366(86)         7381.5552     6595.4844   
 1896  28.6342  7280(85)         7324.0527     6587.5957   
 1897  28.6492  7101(84)         7278.9824     6579.7061   
 1898  28.6642  7282(85)         7243.4517     6571.8174   
 1899  28.6792  7262(85)         7216.2080     6563.9287   
 1900  28.6942  7266(85)         7194.5303     6556.0396   
 1901  28.7092  7197(85)         7178.4209     6548.1509   
 1902  28.7242  7184(85)         7167.5703     6540.2622   
 1903  28.7392  7144(85)         7161.9971     6532.3726   
 1904  28.7542  6954(83)         7161.9868     6524.4839   
 1905  28.7692  7061(84)         7168.0537     6516.5952   
 1906  28.7842  7118(84)         7180.9399     6508.7056   
 1907  28.7992  7073(84)         7201.6240     6500.8174   
 1908  28.8142  7202(85)         7231.3613     6492.9287   
 1909  28.8292  7186(85)         7271.7134     6485.0391   
 1910  28.8442  7147(85)         7324.4951     6477.1504   
 1911  28.8592  7424(86)         7391.7700     6469.2617   
 1912  28.8742  7398(86)         7474.9712     6461.3721   
 1913  28.8892  7283(85)         7575.0479     6453.4834   
 1914  28.9042  7321(86)         7691.5103     6445.5952   
 1915  28.9192  7329(86)         7822.7148     6437.7056   
 1916  28.9342  7449(86)         7967.2305     6429.8169   
 1917  28.9492  7416(86)         8123.9668     6421.9282   
 1918  28.9642  7335(86)         8298.7539     6414.0386   
 1919  28.9792  7579(87)         8489.7852     6406.1499   
 1920  28.9942  7807(88)         8688.3848     6398.2612   
 1921  29.0092  7738(88)         8871.6123     6390.3730   
 1922  29.0242  7634(87)         9002.5137     6382.4834   
 1923  29.0392  7599(87)         9041.5889     6374.5947   
 1924  29.0542  7513(87)         8967.2705     6366.7061   
 1925  29.0692  7480(86)         8789.1758     6358.8164   
 1926  29.0842  7469(86)         8541.5566     6350.9277   
 1927  29.0992  7357(86)         8255.8506     6343.0391   
 1928  29.1142  7304(85)         7981.5229     6335.1499   
 1929  29.1292  7114(84)         7729.0615     6327.2612   
 1930  29.1442  7075(84)         7510.4307     6319.3726   
 1931  29.1592  7038(84)         7324.6040     6311.4829   
 1932  29.1742  7105(84)         7172.6382     6303.5942   
 1933  29.1892  7141(85)         7051.1885     6295.7056   
 1934  29.2042  6946(83)         6955.9556     6287.8159   
 1935  29.2192  6899(83)         6882.4727     6279.9277   
 1936  29.2342  7106(84)         6826.5479     6272.0391   
 1937  29.2492  6857(83)         6784.5845     6264.1494   
 1938  29.2642  6908(83)         6753.6846     6256.2607   
 1939  29.2792  6851(83)         6731.6040     6248.3721   
 1940  29.2942  6851(83)         6716.6934     6240.4824   
 1941  29.3092  6775(82)         6707.8066     6232.5938   
 1942  29.3242  6845(83)         6704.1924     6224.7056   
 1943  29.3392  6883(83)         6705.4233     6216.8159   
 1944  29.3542  7002(84)         6714.3154     6208.9272   
 1945  29.3692  6809(83)         6724.9834     6201.0386   
 1946  29.3842  6925(83)         6740.6353     6193.1499   
 1947  29.3992  6804(82)         6761.7402     6185.2603   
 1948  29.4142  6953(83)         6788.9854     6177.3716   
 1949  29.4292  6948(83)         6823.4434     6169.4834   
 1950  29.4442  7028(84)         6866.5127     6161.5938   
 1951  29.4592  7031(84)         6920.0693     6153.7051   
 1952  29.4742  7071(84)         6986.5337     6145.8164   
 1953  29.4892  7080(84)         7068.8857     6137.9268   
 1954  29.5042  7171(85)         7170.5947     6130.0381   
 1955  29.5192  7423(86)         7295.6104     6122.1494   
 1956  29.5342  7576(87)         7448.2207     6114.2603   
 1957  29.5492  7802(88)         7632.7822     6106.3716   
 1958  29.5642  8000(89)         7853.4131     6098.4829   
 1959  29.5792  8466(92)         8112.9697     6090.5933   
 1960  29.5942  8854(94)         8410.8115     6082.7046   
 1961  29.6092  9466(97)         8739.0566     6074.8159   
 1962  29.6242  9889(99)         9076.8066     6066.9263   
 1963  29.6392  10093(100)        9385.1592     6059.0381   
 1964  29.6542  10230(101)        9610.2441     6051.1494   
 1965  29.6692  10272(101)        9700.0615     6043.2598   
 1966  29.6842  10344(102)        9630.1523     6035.3711   
 1967  29.6992  10104(101)        9417.3955     6027.4824   
 1968  29.7142  9770(99)         9109.0195     6019.5928   
 1969  29.7292  9475(97)         8759.2734     6011.7041   
 1970  29.7442  8763(94)         8411.9170     6003.8159   
 1971  29.7592  8434(92)         8095.3164     5995.9272   
 1972  29.7742  8036(90)         7824.2637     5988.0376   
 1973  29.7892  7932(89)         7604.2651     5980.1489   
 1974  29.8042  7402(86)         7434.4995     5972.2603   
 1975  29.8192  7472(86)         7310.0454     5964.3706   
 1976  29.8342  7340(86)         7223.1313     5956.4819   
 1977  29.8492  7262(85)         7164.1357     5948.5938   
 1978  29.8642  7204(85)         7122.5269     5940.7041   
 1979  29.8792  7162(85)         7092.9180     5932.8154   
 1980  29.8942  7082(84)         7071.6782     5924.9268   
 1981  29.9092  6924(83)         7060.3428     5917.0371   
 1982  29.9242  6912(83)         7062.8335     5909.1484   
 1983  29.9392  7029(84)         7083.6089     5901.2598   
 1984  29.9542  6879(83)         7126.8457     5893.3701   
 1985  29.9692  6991(84)         7196.3521     5885.4819   
 1986  29.9842  6971(83)         7295.7549     5877.5933   
 1987  29.9992  6989(84)         7428.5981     5869.7036   
 1988  30.0142  7045(84)         7598.1504     5861.8149   
 1989  30.0292  7083(84)         7807.0264     5853.9263   
 1990  30.0442  7111(84)         8055.9639     5846.0366   
 1991  30.0592  7227(85)         8341.2295     5838.1484   
 1992  30.0742  7376(86)         8650.5850     5830.2598   
 1993  30.0892  7226(85)         8957.1699     5822.3701   
 1994  30.1042  7284(85)         9216.9375     5814.4814   
 1995  30.1192  7167(85)         9375.2949     5806.5928   
 1996  30.1342  7221(85)         9387.7588     5798.7041   
 1997  30.1492  7074(84)         9243.6309     5790.8145   
 1998  30.1642  6943(83)         8971.8525     5782.9263   
 1999  30.1792  6917(83)         8623.6309     5775.0376   
 2000  30.1942  6920(83)         8249.3672     5767.1479   
 2001  30.2092  6741(82)         7885.9746     5759.2593   
 2002  30.2242  6732(82)         7555.0449     5751.3706   
 2003  30.2392  6696(82)         7266.5781     5743.4810   
 2004  30.2542  6730(82)         7023.1514     5735.5923   
 2005  30.2692  6484(81)         6822.7607     5727.7041   
 2006  30.2842  6474(80)         6660.9946     5719.8145   
 2007  30.2992  6419(80)         6531.6445     5711.9258   
 2008  30.3142  6551(81)         6430.6260     5704.0371   
 2009  30.3292  6494(81)         6351.8687     5696.1475   
 2010  30.3442  6540(81)         6290.7910     5688.2588   
 2011  30.3592  6525(81)         6243.5342     5680.3701   
 2012  30.3742  6754(82)         6206.9595     5672.4805   
 2013  30.3892  6711(82)         6178.5493     5664.5923   
 2014  30.4042  6659(82)         6156.2944     5656.7036   
 2015  30.4192  6598(81)         6138.7007     5648.8140   
 2016  30.4342  6679(82)         6124.8950     5640.9253   
 2017  30.4492  6630(81)         6121.2930     5639.9565   
 2018  30.4642  6622(81)         6122.1396     5640.0522   
 2019  30.4792  6627(81)         6127.7588     5640.1475   
 2020  30.4942  6511(81)         6136.3247     5640.2432   
 2021  30.5092  6552(81)         6149.3364     5640.3384   
 2022  30.5242  6544(81)         6167.1851     5640.4341   
 2023  30.5392  6527(81)         6190.1865     5640.5293   
 2024  30.5542  6639(81)         6218.4775     5640.6250   
 2025  30.5692  6452(80)         6251.7847     5640.7202   
 2026  30.5842  6445(80)         6289.0869     5640.8159   
 2027  30.5992  6408(80)         6328.3623     5640.9111   
 2028  30.6142  6584(81)         6366.7402     5641.0068   
 2029  30.6292  6510(81)         6402.3164     5641.1021   
 2030  30.6442  6590(81)         6432.5127     5641.1978   
 2031  30.6592  6518(81)         6460.0620     5641.2930   
 2032  30.6742  6546(81)         6489.2412     5641.3887   
 2033  30.6892  6568(81)         6525.2241     5641.4839   
 2034  30.7042  6622(81)         6572.8325     5641.5796   
 2035  30.7192  6568(81)         6636.0371     5641.6748   
 2036  30.7342  6898(83)         6718.0166     5641.7705   
 2037  30.7492  6882(83)         6821.2222     5641.8657   
 2038  30.7642  7074(84)         6947.1270     5641.9614   
 2039  30.7792  7141(85)         7095.5449     5642.0566   
 2040  30.7942  7215(85)         7263.0708     5642.1523   
 2041  30.8092  7245(85)         7440.8677     5642.2480   
 2042  30.8242  7477(86)         7612.3115     5642.3433   
 2043  30.8392  7522(87)         7754.5410     5642.4390   
 2044  30.8542  7464(86)         7844.2134     5642.5342   
 2045  30.8692  7412(86)         7868.1543     5642.6299   
 2046  30.8842  7583(87)         7830.4863     5642.7251   
 2047  30.8992  7585(87)         7750.5127     5642.8208   
 2048  30.9142  7509(87)         7653.8413     5642.9160   
 2049  30.9292  7512(87)         7563.7139     5643.0117   
 2050  30.9442  7536(87)         7497.3730     5643.1069   
 2051  30.9592  7683(88)         7465.7900     5643.2026   
 2052  30.9742  7880(89)         7475.5479     5643.2979   
 2053  30.9892  8040(90)         7527.7207     5643.3936   
 2054  31.0042  8411(92)         7621.5210     5643.4888   
 2055  31.0192  8459(92)         7751.3066     5643.5845   
 2056  31.0342  8520(92)         7898.8433     5643.6797   
 2057  31.0492  8836(94)         8060.6328     5643.7754   
 2058  31.0642  8869(94)         8207.2900     5643.8706   
 2059  31.0792  8725(93)         8315.9551     5643.9663   
 2060  31.0942  8841(94)         8368.8643     5644.0615   
 2061  31.1092  8783(94)         8358.6719     5644.1572   
 2062  31.1242  8597(93)         8292.3457     5644.2524   
 2063  31.1392  8499(92)         8189.8135     5644.3481   
 2064  31.1542  8409(92)         8077.2764     5644.4434   
 2065  31.1692  8395(92)         7978.7139     5644.5391   
 2066  31.1842  8121(90)         7911.9785     5644.6343   
 2067  31.1992  8059(90)         7887.2368     5644.7300   
 2068  31.2142  7970(89)         7907.5342     5644.8252   
 2069  31.2292  7978(89)         7968.5264     5644.9209   
 2070  31.2442  7951(89)         8057.0913     5645.0161   
 2071  31.2592  7883(89)         8150.0664     5645.1118   
 2072  31.2742  7800(88)         8216.3496     5645.2070   
 2073  31.2892  7675(88)         8225.4678     5645.3027   
 2074  31.3042  7724(88)         8160.8940     5645.3979   
 2075  31.3192  7550(87)         8026.3071     5645.4937   
 2076  31.3342  7381(86)         7843.9893     5645.5889   
 2077  31.3492  7336(86)         7641.4692     5645.6846   
 2078  31.3642  7216(85)         7442.2100     5645.7798   
 2079  31.3792  7164(85)         7262.0952     5645.8755   
 2080  31.3942  7044(84)         7109.9922     5645.9707   
 2081  31.4092  6972(83)         6989.9404     5646.0664   
 2082  31.4242  6995(84)         6903.2114     5646.1616   
 2083  31.4392  7162(85)         6848.9570     5646.2573   
 2084  31.4542  7178(85)         6826.4980     5646.3525   
 2085  31.4692  7270(85)         6832.6992     5646.4482   
 2086  31.4842  7356(86)         6865.7017     5646.5435   
 2087  31.4992  7365(86)         6922.0762     5646.6392   
 2088  31.5142  7549(87)         6996.5522     5646.7344   
 2089  31.5292  7600(87)         7081.2095     5646.8301   
 2090  31.5442  7606(87)         7165.3896     5646.9253   
 2091  31.5592  7634(87)         7237.1226     5647.0210   
 2092  31.5742  7749(88)         7285.6143     5647.1162   
 2093  31.5892  7720(88)         7302.8271     5647.2119   
 2094  31.6042  7805(88)         7283.8389     5647.3071   
 2095  31.6192  7535(87)         7227.7183     5647.4028   
 2096  31.6342  7467(86)         7139.2119     5647.4980   
 2097  31.6492  7214(85)         7028.4600     5647.5938   
 2098  31.6642  7074(84)         6908.9219     5647.6890   
 2099  31.6792  7021(84)         6791.9922     5647.7847   
 2100  31.6942  6977(84)         6686.1343     5647.8799   
 2101  31.7092  6821(83)         6595.4575     5647.9756   
 2102  31.7242  6694(82)         6522.0938     5648.0708   
 2103  31.7392  6498(81)         6466.0703     5648.1665   
 2104  31.7542  6557(81)         6424.1284     5648.2617   
 2105  31.7692  6474(80)         6398.3398     5648.3574   
 2106  31.7842  6329(80)         6383.7788     5648.4526   
 2107  31.7992  6471(80)         6377.1787     5648.5483   
 2108  31.8142  6482(81)         6376.6528     5648.6436   
 2109  31.8292  6355(80)         6377.7197     5648.7393   
 2110  31.8442  6363(80)         6382.3350     5648.8345   
 2111  31.8592  6273(79)         6389.2637     5648.9302   
 2112  31.8742  6310(79)         6401.5273     5649.0254   
 2113  31.8892  6388(80)         6421.1382     5649.1211   
 2114  31.9042  6408(80)         6450.4375     5649.2163   
 2115  31.9192  6604(81)         6490.3364     5649.3120   
 2116  31.9342  6693(82)         6543.0264     5649.4072   
 2117  31.9492  6662(82)         6610.4966     5649.5029   
 2118  31.9642  6773(82)         6694.9199     5649.5981   
 2119  31.9792  7024(84)         6798.6533     5649.6938   
 2120  31.9942  7418(86)         6924.2441     5649.7891   
 2121  32.0092  7637(87)         7074.2080     5649.8848   
 2122  32.0242  7922(89)         7250.6348     5649.9800   
 2123  32.0392  8277(91)         7454.2017     5650.0757   
 2124  32.0542  8691(93)         7682.6934     5650.1709   
 2125  32.0692  9103(95)         7928.5264     5650.2666   
 2126  32.0842  9350(97)         8175.9707     5650.3618   
 2127  32.0992  9579(98)         8400.2559     5650.4575   
 2128  32.1142  9256(96)         8570.8408     5650.5527   
 2129  32.1292  9275(96)         8660.9463     5650.6484   
 2130  32.1442  9104(95)         8659.6172     5650.7437   
 2131  32.1592  8547(92)         8578.1621     5650.8394   
 2132  32.1742  8289(91)         8445.0664     5650.9346   
 2133  32.1892  8186(90)         8294.2070     5651.0303   
 2134  32.2042  7863(89)         8154.9688     5651.1255   
 2135  32.2192  7880(89)         8048.3735     5651.2212   
 2136  32.2342  7876(89)         7987.6509     5651.3164   
 2137  32.2492  7790(88)         7980.3545     5651.4121   
 2138  32.2642  7880(89)         8029.9824     5651.5073   
 2139  32.2792  8234(91)         8136.7041     5651.6030   
 2140  32.2942  8537(92)         8296.8828     5651.6982   
 2141  32.3092  8835(94)         8499.7539     5651.7939   
 2142  32.3242  9108(95)         8725.5508     5651.8892   
 2143  32.3392  9323(97)         8941.5098     5651.9849   
 2144  32.3542  9611(98)         9104.2334     5652.0801   
 2145  32.3692  9678(98)         9170.9941     5652.1758   
 2146  32.3842  9307(96)         9113.5225     5652.2710   
 2147  32.3992  9138(96)         8935.6992     5652.3667   
 2148  32.4142  8607(93)         8666.9609     5652.4619   
 2149  32.4292  8365(91)         8348.2227     5652.5576   
 2150  32.4442  7828(88)         8013.6357     5652.6528   
 2151  32.4592  7315(86)         7695.1006     5652.7485   
 2152  32.4742  7132(84)         7404.7627     5652.8438   
 2153  32.4892  6854(83)         7149.9424     5652.9395   
 2154  32.5042  6513(81)         6931.9697     5653.0347   
 2155  32.5192  6316(79)         6749.3711     5653.1304   
 2156  32.5342  6167(79)         6598.7847     5653.2256   
 2157  32.5492  6237(79)         6476.1348     5653.3213   
 2158  32.5642  6259(79)         6377.1680     5653.4165   
 2159  32.5792  6157(78)         6297.8359     5653.5122   
 2160  32.5942  6129(78)         6234.5117     5653.6074   
 2161  32.6092  6080(78)         6184.0786     5653.7031   
 2162  32.6242  6113(78)         6143.9917     5653.7983   
 2163  32.6392  6200(79)         6112.1699     5653.8940   
 2164  32.6542  6259(79)         6086.9824     5653.9893   
 2165  32.6692  6005(77)         6066.9102     5654.0850   
 2166  32.6842  6171(79)         6051.4551     5654.1802   
 2167  32.6992  6055(78)         6039.5435     5654.2759   
 2168  32.7142  6357(80)         6030.4268     5654.3711   
 2169  32.7292  6288(79)         6023.3057     5654.4668   
 2170  32.7442  6448(80)         6017.2573     5654.5620   
 2171  32.7592  6417(80)         6011.2554     5654.6577   
 2172  32.7742  6508(81)         6004.3218     5654.7529   
 2173  32.7892  6402(80)         5996.6694     5654.8486   
 2174  32.8042  6505(81)         5986.2690     5654.9438   
 2175  32.8192  6399(80)         5974.2720     5655.0396   
 2176  32.8342  6220(79)         5961.2837     5655.1348   
 2177  32.8492  6311(79)         5948.0576     5655.2305   
 2178  32.8642  6197(79)         5935.2876     5655.3257   
 2179  32.8792  6124(78)         5923.5186     5655.4214   
 2180  32.8942  5876(77)         5913.0820     5655.5166   
 2181  32.9092  6017(78)         5904.1494     5655.6123   
 2182  32.9242  5853(77)         5896.7847     5655.7075   
 2183  32.9392  5955(77)         5887.9692     5655.8032   
 2184  32.9542  5930(77)         5884.5034     5655.8984   
 2185  32.9692  5907(77)         5881.8184     5655.9941   
 2186  32.9842  5905(77)         5880.6353     5656.0894   
 2187  32.9992  5890(77)         5880.9546     5656.1851   
 2188  33.0142  6074(78)         5882.7954     5656.2803   
 2189  33.0292  5966(77)         5886.1958     5656.3760   
 2190  33.0442  6015(78)         5891.2002     5656.4712   
 2191  33.0592  6153(78)         5897.8330     5656.5669   
 2192  33.0742  6039(78)         5906.0469     5656.6621   
 2193  33.0892  6041(78)         5915.6294     5656.7578   
 2194  33.1042  5976(77)         5926.0898     5656.8530   
 2195  33.1192  6071(78)         5936.5464     5656.9487   
 2196  33.1342  6089(78)         5945.7368     5657.0439   
 2197  33.1492  5973(77)         5952.2905     5657.1396   
 2198  33.1642  5968(77)         5955.2412     5657.2349   
 2199  33.1792  5840(76)         5954.5063     5657.3306   
 2200  33.1942  5940(77)         5950.9399     5657.4258   
 2201  33.2092  5958(77)         5945.9321     5657.5215   
 2202  33.2242  5805(76)         5944.2461     5657.6167   
 2203  33.2392  5811(76)         5940.3120     5657.7124   
 2204  33.2542  5765(76)         5938.1870     5657.8076   
 2205  33.2692  5742(76)         5938.3604     5657.9033   
 2206  33.2842  5732(76)         5938.5054     5655.4316   
 2207  33.2992  5847(76)         5940.0610     5651.6772   
 2208  33.3142  5580(75)         5944.4229     5647.9229   
 2209  33.3292  5735(76)         5951.7119     5644.1685   
 2210  33.3442  5768(76)         5962.0928     5640.4141   
 2211  33.3592  6033(78)         5975.9087     5636.6592   
 2212  33.3742  5922(77)         5993.3003     5632.9048   
 2213  33.3892  5901(77)         6014.8315     5629.1504   
 2214  33.4042  5974(77)         6041.1035     5625.3960   
 2215  33.4192  6051(78)         6072.8613     5621.6416   
 2216  33.4342  6077(78)         6110.9966     5617.8872   
 2217  33.4492  6222(79)         6156.5542     5614.1323   
 2218  33.4642  6259(79)         6210.6631     5610.3779   
 2219  33.4792  6460(80)         6274.5645     5606.6235   
 2220  33.4942  6650(82)         6349.6987     5602.8691   
 2221  33.5092  6970(83)         6436.5615     5599.1147   
 2222  33.5242  7263(85)         6535.6982     5595.3604   
 2223  33.5392  7151(85)         6646.5986     5591.6055   
 2224  33.5542  7405(86)         6764.9775     5587.8511   
 2225  33.5692  7616(87)         6884.7441     5584.0967   
 2226  33.5842  7681(88)         6995.5522     5580.3423   
 2227  33.5992  7715(88)         7084.4517     5576.5879   
 2228  33.6142  7875(89)         7139.4961     5572.8335   
 2229  33.6292  7613(87)         7154.8179     5569.0786   
 2230  33.6442  7408(86)         7133.8628     5565.3242   
 2231  33.6592  7296(85)         7088.0938     5561.5698   
 2232  33.6742  7203(85)         7032.1470     5557.8154   
 2233  33.6892  6903(83)         6979.0142     5554.0610   
 2234  33.7042  6689(82)         6937.5933     5550.3066   
 2235  33.7192  6540(81)         6910.8076     5546.5527   
 2236  33.7342  6468(80)         6895.8037     5542.7974   
 2237  33.7492  6389(80)         6888.5776     5539.0430   
 2238  33.7642  6251(79)         6877.3916     5535.2886   
 2239  33.7792  6213(79)         6851.9707     5531.5342   
 2240  33.7942  6165(79)         6805.0479     5527.7798   
 2241  33.8092  6096(78)         6736.2061     5524.0259   
 2242  33.8242  6053(78)         6651.2471     5520.2705   
 2243  33.8392  6125(78)         6559.1357     5516.5161   
 2244  33.8542  6047(78)         6468.2227     5512.7617   
 2245  33.8692  6097(78)         6384.7969     5509.0073   
 2246  33.8842  6030(78)         6312.5835     5505.2529   
 2247  33.8992  5996(77)         6253.2949     5501.4990   
 2248  33.9142  6205(79)         6207.2334     5497.7437   
 2249  33.9292  6250(79)         6173.7251     5493.9893   
 2250  33.9442  6263(79)         6151.3418     5490.2349   
 2251  33.9592  6312(79)         6138.0864     5486.4805   
 2252  33.9742  6402(80)         6130.9858     5482.7261   
 2253  33.9892  6530(81)         6129.4492     5478.9722   
 2254  34.0042  6562(81)         6130.4170     5475.2168   
 2255  34.0192  6611(81)         6136.3789     5471.4624   
 2256  34.0342  6824(83)         6147.0439     5467.7080   
 2257  34.0492  6928(83)         6163.5874     5463.9536   
 2258  34.0642  7003(84)         6186.7217     5460.1992   
 2259  34.0792  7082(84)         6216.2998     5456.4453   
 2260  34.0942  7002(84)         6250.9805     5452.6909   
 2261  34.1092  6915(83)         6287.9624     5448.9355   
 2262  34.1242  6857(83)         6322.6846     5445.1812   
 2263  34.1392  6858(83)         6349.4795     5441.4268   
 2264  34.1542  6808(83)         6361.3340     5437.6724   
 2265  34.1692  6729(82)         6354.5034     5433.9185   
 2266  34.1842  6820(83)         6329.0063     5430.1641   
 2267  34.1992  6736(82)         6289.0728     5426.4087   
 2268  34.2142  6602(81)         6239.4575     5422.6543   
 2269  34.2292  6615(81)         6190.2959     5418.8999   
 2270  34.2442  6458(80)         6144.6758     5415.1455   
 2271  34.2592  6310(79)         6105.5596     5411.3916   
 2272  34.2742  6210(79)         6074.1958     5407.6372   
 2273  34.2892  5958(77)         6050.5977     5403.8818   
 2274  34.3042  6019(78)         6034.0537     5400.1274   
 2275  34.3192  5915(77)         6023.4941     5396.3730   
 2276  34.3342  5913(77)         6017.7373     5392.6187   
 2277  34.3492  5749(76)         6015.5571     5388.8647   
 2278  34.3642  5779(76)         6015.8711     5385.1104   
 2279  34.3792  5945(77)         6018.1006     5381.3550   
 2280  34.3942  5724(76)         6022.5225     5377.6006   
 2281  34.4092  5724(76)         6030.2534     5373.8462   
 2282  34.4242  5718(76)         6042.8008     5370.0918   
 2283  34.4392  5787(76)         6061.4458     5366.3379   
 2284  34.4542  5817(76)         6086.7075     5362.5835   
 2285  34.4692  5881(77)         6117.9316     5358.8291   
 2286  34.4842  5769(76)         6153.0288     5355.0737   
 2287  34.4992  5798(76)         6188.4937     5351.3193   
 2288  34.5142  6012(78)         6219.6699     5347.5649   
 2289  34.5292  6089(78)         6244.2778     5343.8110   
 2290  34.5442  6032(78)         6260.8726     5340.0566   
 2291  34.5592  6013(78)         6271.5698     5336.3022   
 2292  34.5742  5793(76)         6279.9067     5332.5469   
 2293  34.5892  6059(78)         6291.9780     5328.7925   
 2294  34.6042  6060(78)         6310.5605     5325.0381   
 2295  34.6192  6067(78)         6337.0166     5321.2842   
 2296  34.6342  5998(77)         6370.0718     5317.5298   
 2297  34.6492  6090(78)         6405.6611     5313.7754   
 2298  34.6642  6136(78)         6437.3174     5310.0200   
 2299  34.6792  5767(76)         6457.4497     5306.2656   
 2300  34.6942  5917(77)         6459.5210     5302.5112   
 2301  34.7092  6007(78)         6440.6504     5298.7573   
 2302  34.7242  5886(77)         6402.7754     5295.0029   
 2303  34.7392  5819(76)         6351.8438     5291.2485   
 2304  34.7542  5962(77)         6295.5151     5287.4932   
 2305  34.7692  5617(75)         6240.7183     5283.7388   
 2306  34.7842  5552(75)         6192.6221     5279.9844   
 2307  34.7992  5325(73)         6154.8521     5276.2305   
 2308  34.8142  5292(73)         6129.1973     5272.4761   
 2309  34.8292  5436(74)         6116.6431     5268.7217   
 2310  34.8442  5511(74)         6117.6646     5264.9673   
 2311  34.8592  5711(76)         6132.5288     5261.2119   
 2312  34.8742  5875(77)         6161.3672     5257.4575   
 2313  34.8892  5927(77)         6204.3174     5253.7036   
 2314  34.9042  6103(78)         6261.3726     5249.9492   
 2315  34.9192  6112(78)         6332.2280     5246.1948   
 2316  34.9342  6071(78)         6416.0947     5242.4404   
 2317  34.9492  6457(80)         6511.7148     5238.6851   
 2318  34.9642  6572(81)         6617.6641     5234.9307   
 2319  34.9792  6766(82)         6733.3447     5231.1768   
 2320  34.9942  7126(84)         6859.7236     5227.4224   
 2321  35.0092  7427(86)         6999.3921     5223.6680   
 2322  35.0242  7755(88)         7155.3325     5219.9136   
 2323  35.0392  8052(90)         7328.8076     5216.1582   
 2324  35.0542  8471(92)         7516.4985     5212.4038   
 2325  35.0692  8668(93)         7708.9185     5208.6499   
 2326  35.0842  9091(95)         7889.3203     5204.8955   
 2327  35.0992  8979(95)         8035.7183     5201.1411   
 2328  35.1142  9041(95)         8125.8604     5197.3867   
 2329  35.1292  8926(94)         8143.4961     5193.6313   
 2330  35.1442  8570(93)         8089.5479     5189.8770   
 2331  35.1592  8173(90)         7971.3594     5186.1230   
 2332  35.1742  7950(89)         7805.3379     5182.3687   
 2333  35.1892  7670(88)         7608.7363     5178.6143   
 2334  35.2042  7228(85)         7395.8809     5174.8599   
 2335  35.2192  7104(84)         7177.7539     5171.1055   
 2336  35.2342  6773(82)         6963.0771     5167.3501   
 2337  35.2492  6543(81)         6759.2334     5163.5962   
 2338  35.2642  6327(80)         6571.7666     5159.8418   
 2339  35.2792  6177(79)         6404.2397     5156.0874   
 2340  35.2942  6071(78)         6258.1709     5152.3330   
 2341  35.3092  5925(77)         6133.4243     5148.5786   
 2342  35.3242  5867(77)         6030.1060     5144.8232   
 2343  35.3392  5864(77)         5943.6914     5141.0693   
 2344  35.3542  5776(76)         5873.4424     5137.3149   
 2345  35.3692  5702(76)         5817.3096     5133.5605   
 2346  35.3842  5488(74)         5773.4063     5129.8062   
 2347  35.3992  5531(74)         5737.1460     5126.0518   
 2348  35.4142  5480(74)         5713.0713     5122.2964   
 2349  35.4292  5517(74)         5697.1445     5118.5425   
 2350  35.4442  5633(75)         5688.5664     5114.7881   
 2351  35.4592  5623(75)         5686.8193     5111.0337   
 2352  35.4742  5731(76)         5691.6455     5107.2793   
 2353  35.4892  5662(75)         5703.0244     5103.5249   
 2354  35.5042  5675(75)         5721.1665     5099.7695   
 2355  35.5192  5776(76)         5746.4014     5096.0156   
 2356  35.5342  5869(77)         5779.2217     5092.2612   
 2357  35.5492  6164(79)         5820.1128     5088.5068   
 2358  35.5642  6345(80)         5869.3955     5084.7524   
 2359  35.5792  6641(81)         5926.9932     5080.9980   
 2360  35.5942  6782(82)         5992.0386     5077.2437   
 2361  35.6092  6958(83)         6062.7168     5073.4888   
 2362  35.6242  6961(83)         6136.0186     5069.7344   
 2363  35.6392  6916(83)         6208.1768     5065.9800   
 2364  35.6542  7093(84)         6274.6626     5062.2256   
 2365  35.6692  7212(85)         6330.8022     5058.4712   
 2366  35.6842  6849(83)         6371.2026     5054.7168   
 2367  35.6992  6914(83)         6389.8740     5050.9619   
 2368  35.7142  6843(83)         6381.5288     5047.2075   
 2369  35.7292  6421(80)         6344.0029     5043.4531   
 2370  35.7442  6345(80)         6280.0142     5039.6987   
 2371  35.7592  6194(79)         6196.5454     5035.9443   
 2372  35.7742  6054(78)         6103.1724     5032.1899   
 2373  35.7892  6025(78)         6007.2510     5028.4351   
 2374  35.8042  5729(76)         5915.7056     5024.6807   
 2375  35.8192  5646(75)         5832.3174     5020.9263   
 2376  35.8342  5460(74)         5759.1392     5017.1719   
 2377  35.8492  5462(74)         5696.8452     5013.4175   
 2378  35.8642  5441(74)         5645.3535     5009.6631   
 2379  35.8792  5406(74)         5604.0283     5005.9077   
 2380  35.8942  5232(72)         5572.1846     5002.1538   
 2381  35.9092  5327(73)         5548.9858     4998.3994   
 2382  35.9242  5267(73)         5533.6943     4994.6450   
 2383  35.9392  5210(72)         5525.6934     4990.8906   
 2384  35.9542  5295(73)         5524.5229     4987.1362   
 2385  35.9692  5198(72)         5529.9004     4983.3818   
 2386  35.9842  5256(72)         5541.7310     4979.6270   
 2387  35.9992  5337(73)         5560.0933     4975.8726   
 2388  36.0142  5209(72)         5585.2505     4972.1182   
 2389  36.0292  5366(73)         5617.6226     4968.3638   
 2390  36.0442  5400(73)         5657.7554     4964.6094   
 2391  36.0592  5327(73)         5706.2554     4960.8550   
 2392  36.0742  5612(75)         5763.6758     4957.1001   
 2393  36.0892  5537(74)         5830.2188     4953.3457   
 2394  36.1042  5587(75)         5905.4326     4949.5913   
 2395  36.1192  6007(78)         5987.5830     4945.8369   
 2396  36.1342  5979(77)         6073.0098     4942.0825   
 2397  36.1492  6174(79)         6155.7021     4938.3281   
 2398  36.1642  6331(80)         6227.7041     4934.5732   
 2399  36.1792  6562(81)         6280.7744     4930.8188   
 2400  36.1942  6532(81)         6311.6162     4927.0645   
 2401  36.2092  6759(82)         6315.3809     4923.3101   
 2402  36.2242  6919(83)         6298.8018     4919.5557   
 2403  36.2392  6954(83)         6270.6260     4915.8013   
 2404  36.2542  6909(83)         6239.9644     4912.0464   
 2405  36.2692  6838(83)         6214.8325     4908.2920   
 2406  36.2842  6686(82)         6200.5405     4904.5376   
 2407  36.2992  6732(82)         6200.0068     4900.7832   
 2408  36.3142  6368(80)         6213.8315     4897.0288   
 2409  36.3292  6262(79)         6240.2622     4893.2744   
 2410  36.3442  6150(78)         6275.2993     4889.5205   
 2411  36.3592  5849(76)         6312.2510     4885.7651   
 2412  36.3742  5601(75)         6343.8203     4882.0107   
 2413  36.3892  5510(74)         6363.5952     4878.2563   
 2414  36.4042  5592(75)         6368.5742     4874.5020   
 2415  36.4192  5540(74)         6360.4336     4870.7476   
 2416  36.4342  5675(75)         6346.2930     4866.9937   
 2417  36.4492  5846(76)         6331.2627     4863.2383   
 2418  36.4642  5755(76)         6322.9443     4859.4839   
 2419  36.4792  5941(77)         6328.0703     4855.7295   
 2420  36.4942  5755(76)         6351.1289     4851.9751   
 2421  36.5092  5651(75)         6395.8428     4848.2207   
 2422  36.5242  5612(75)         6464.7314     4844.4668   
 2423  36.5392  5758(76)         6560.7285     4840.7114   
 2424  36.5542  5906(77)         6685.3286     4836.9570   
 2425  36.5692  6408(80)         6840.6396     4833.2026   
 2426  36.5842  6653(82)         7027.4883     4829.4482   
 2427  36.5992  7019(84)         7244.7070     4825.6938   
 2428  36.6142  7179(85)         7487.4531     4821.9399   
 2429  36.6292  7090(84)         7745.0669     4818.1846   
 2430  36.6442  7182(85)         7998.7734     4814.4302   
 2431  36.6592  7283(85)         8221.8203     4810.6758   
 2432  36.6742  7219(85)         8382.8242     4806.9214   
 2433  36.6892  7143(85)         8454.0918     4803.1670   
 2434  36.7042  7051(84)         8421.5908     4799.4131   
 2435  36.7192  6850(83)         8290.6084     4795.6587   
 2436  36.7342  6690(82)         8083.3379     4791.9033   
 2437  36.7492  6609(81)         7829.9595     4788.1489   
 2438  36.7642  6506(81)         7558.2534     4784.3945   
 2439  36.7792  6514(81)         7292.7266     4780.6401   
 2440  36.7942  6234(79)         7046.6294     4776.8862   
 2441  36.8092  6132(78)         6827.5977     4773.1318   
 2442  36.8242  5907(77)         6640.6484     4769.3765   
 2443  36.8392  5785(76)         6481.7720     4765.6221   
 2444  36.8542  5813(76)         6351.9175     4761.8677   
 2445  36.8692  5550(74)         6249.5527     4758.1133   
 2446  36.8842  5561(75)         6173.0000     4754.3594   
 2447  36.8992  5503(74)         6120.2715     4750.6050   
 2448  36.9142  5552(75)         6088.6978     4746.8496   
 2449  36.9292  5519(74)         6074.5732     4743.0952   
 2450  36.9442  5570(75)         6072.0586     4739.3408   
 2451  36.9592  5504(74)         6076.6548     4735.5864   
 2452  36.9742  5576(75)         6080.8740     4731.8325   
 2453  36.9892  5465(74)         6078.5693     4728.0781   
 2454  37.0042  5439(74)         6065.0166     4724.3228   
 2455  37.0192  5572(75)         6037.3672     4720.5684   
 2456  37.0342  5390(73)         5994.7383     4716.8140   
 2457  37.0492  5456(74)         5938.3281     4713.0596   
 2458  37.0642  5443(74)         5871.3760     4709.3057   
 2459  37.0792  5345(73)         5798.5898     4705.5513   
 2460  37.0942  5550(74)         5725.0796     4701.7969   
 2461  37.1092  5507(74)         5655.2695     4698.0415   
 2462  37.1242  5420(74)         5592.3335     4694.2871   
 2463  37.1392  5459(74)         5537.9248     4690.5327   
 2464  37.1542  5440(74)         5492.3428     4686.7788   
 2465  37.1692  5546(74)         5454.6704     4683.0244   
 2466  37.1842  5536(74)         5422.9756     4679.2700   
 2467  37.1992  5677(75)         5394.5195     4675.5146   
 2468  37.2142  5542(74)         5366.4551     4671.7603   
 2469  37.2292  5588(75)         5336.4697     4668.0059   
 2470  37.2442  5534(74)         5303.5063     4664.2520   
 2471  37.2592  5565(75)         5267.9897     4660.4976   
 2472  37.2742  5460(74)         5231.3672     4656.7432   
 2473  37.2892  5631(75)         5195.0405     4652.9878   
 2474  37.3042  5449(74)         5160.7124     4649.2334   
 2475  37.3192  5559(75)         5129.1890     4645.4790   
 2476  37.3342  5588(75)         5100.7222     4641.7251   
 2477  37.3492  5559(75)         5075.0820     4637.9707   
 2478  37.3642  5635(75)         5051.2129     4634.2163   
 2479  37.3792  5512(74)         5029.7583     4630.4609   
 2480  37.3942  5592(75)         5009.8418     4626.7065   
 2481  37.4092  5465(74)         4991.3960     4622.9521   
 2482  37.4242  5549(74)         4974.5469     4619.1982   
 2483  37.4392  5367(73)         4959.4819     4615.4438   
 2484  37.4542  5444(74)         4946.3691     4611.6895   
 2485  37.4692  5284(73)         4935.3311     4607.9351   
 2486  37.4842  5421(74)         4926.5864     4604.1797   
 2487  37.4992  5310(73)         4920.0259     4600.4253   
 2488  37.5142  5324(73)         4915.9072     4596.6714   
 2489  37.5292  5289(73)         4914.3384     4592.9170   
 2490  37.5442  5180(72)         4915.6001     4589.1626   
 2491  37.5592  5150(72)         4919.7988     4585.4082   
 2492  37.5742  5049(71)         4927.0757     4581.6528   
 2493  37.5892  5140(72)         4937.5171     4577.8984   
 2494  37.6042  5031(71)         4950.9985     4574.1445   
 2495  37.6192  4991(71)         4967.5884     4570.3901   
 2496  37.6342  4985(71)         4986.6563     4566.6357   
 2497  37.6492  5145(72)         5007.1606     4562.8813   
 2498  37.6642  5161(72)         5027.3154     4559.1260   
 2499  37.6792  5143(72)         5044.5020     4555.3716   
 2500  37.6942  5070(71)         5055.5942     4551.6177   
 2501  37.7092  5034(71)         5057.6748     4547.8633   
 2502  37.7242  5049(71)         5049.2100     4544.1089   
 2503  37.7392  5014(71)         5029.9419     4540.3545   
 2504  37.7542  4949(70)         5001.9614     4536.5991   
 2505  37.7692  4946(70)         4967.8267     4532.8447   
 2506  37.7842  4911(70)         4931.3604     4529.0908   
 2507  37.7992  4916(70)         4894.6704     4525.3364   
 2508  37.8142  4953(70)         4859.4946     4521.5820   
 2509  37.8292  4936(70)         4826.8560     4517.8276   
 2510  37.8442  4867(70)         4797.2349     4514.0732   
 2511  37.8592  4855(70)         4770.7422     4510.3179   
 2512  37.8742  4794(69)         4747.2866     4506.5640   
 2513  37.8892  4625(68)         4728.3574     4502.8096   
 2514  37.9042  4697(69)         4710.2183     4499.0552   
 2515  37.9192  4781(69)         4694.1367     4495.3008   
 2516  37.9342  4794(69)         4680.0933     4491.5464   
 2517  37.9492  4770(69)         4667.6782     4487.7910   
 2518  37.9642  4756(69)         4656.0684     4484.0371   
 2519  37.9792  4827(69)         4646.2759     4480.2827   
 2520  37.9942  4752(69)         4637.5352     4476.5283   
 2521  38.0092  4635(68)         4629.7095     4472.7739   
 2522  38.0242  4683(68)         4622.6860     4469.0195   
 2523  38.0392  4739(69)         4616.3662     4465.2642   
 2524  38.0542  4688(68)         4611.0938     4461.5103   
 2525  38.0692  4757(69)         4605.9717     4457.7559   
 2526  38.0842  4830(69)         4601.3687     4454.0015   
 2527  38.0992  4603(68)         4597.2534     4450.2471   
 2528  38.1142  4800(69)         4593.6064     4446.4927   
 2529  38.1292  4709(69)         4590.4229     4442.7373   
 2530  38.1442  4647(68)         4587.7085     4438.9834   
 2531  38.1592  4625(68)         4585.4780     4435.2290   
 2532  38.1742  4793(69)         4583.7544     4431.4746   
 2533  38.1892  4779(69)         4582.5664     4427.7202   
 2534  38.2042  4712(69)         4581.9453     4423.9658   
 2535  38.2192  4652(68)         4581.9204     4420.2114   
 2536  38.2342  4708(69)         4584.1758     4417.8760   
 2537  38.2492  4759(69)         4588.0439     4416.7822   
 2538  38.2642  4798(69)         4592.2148     4415.6885   
 2539  38.2792  4773(69)         4597.1411     4414.5947   
 2540  38.2942  4717(69)         4602.3809     4413.5010   
 2541  38.3092  4617(68)         4607.7075     4412.4072   
 2542  38.3242  4719(69)         4612.8643     4411.3135   
 2543  38.3392  4743(69)         4618.1328     4410.2197   
 2544  38.3542  4783(69)         4622.6421     4409.1260   
 2545  38.3692  4720(69)         4625.8530     4408.0322   
 2546  38.3842  4740(69)         4627.9663     4406.9385   
 2547  38.3992  4744(69)         4628.8018     4405.8447   
 2548  38.4142  4753(69)         4627.3203     4404.7505   
 2549  38.4292  4804(69)         4625.6890     4403.6567   
 2550  38.4442  4698(69)         4622.1240     4402.5635   
 2551  38.4592  4820(69)         4619.4028     4401.4697   
 2552  38.4742  4644(68)         4616.8643     4400.3760   
 2553  38.4892  4770(69)         4614.7549     4399.2822   
 2554  38.5042  4802(69)         4613.3179     4398.1880   
 2555  38.5192  4757(69)         4612.1909     4397.0942   
 2556  38.5342  4879(70)         4612.3125     4396.0005   
 2557  38.5492  4837(70)         4613.2349     4394.9067   
 2558  38.5642  4764(69)         4615.0957     4393.8130   
 2559  38.5792  4718(69)         4617.9839     4392.7197   
 2560  38.5942  4893(70)         4622.0347     4391.6260   
 2561  38.6092  4797(69)         4627.3760     4390.5317   
 2562  38.6242  4712(69)         4634.0986     4389.4380   
 2563  38.6392  4716(69)         4642.2451     4388.3442   
 2564  38.6542  4750(69)         4651.7930     4387.2505   
 2565  38.6692  4775(69)         4662.6406     4386.1567   
 2566  38.6842  4830(69)         4674.6079     4385.0630   
 2567  38.6992  4936(70)         4687.4653     4383.9692   
 2568  38.7142  4717(69)         4700.9873     4382.8755   
 2569  38.7292  4692(68)         4715.0728     4381.7817   
 2570  38.7442  4859(70)         4729.8198     4380.6880   
 2571  38.7592  4852(70)         4745.5610     4379.5942   
 2572  38.7742  4727(69)         4762.8203     4378.5005   
 2573  38.7892  5018(71)         4782.2378     4377.4067   
 2574  38.8042  4918(70)         4804.8706     4376.3130   
 2575  38.8192  5034(71)         4830.6289     4375.2192   
 2576  38.8342  5062(71)         4860.5981     4374.1255   
 2577  38.8492  5123(72)         4895.5063     4373.0317   
 2578  38.8642  5000(71)         4936.1353     4371.9380   
 2579  38.8792  5186(72)         4983.3408     4370.8438   
 2580  38.8942  5151(72)         5037.9897     4369.7505   
 2581  38.9092  5257(73)         5101.0562     4368.6567   
 2582  38.9242  5310(73)         5173.0981     4367.5630   
 2583  38.9392  5537(74)         5254.7310     4366.4692   
 2584  38.9542  5607(75)         5345.2056     4365.3755   
 2585  38.9692  5562(75)         5442.9790     4364.2817   
 2586  38.9842  5655(75)         5544.4009     4363.1875   
 2587  38.9992  5803(76)         5642.9736     4362.0938   
 2588  39.0142  5797(76)         5730.6216     4361.0000   
 2589  39.0292  5865(77)         5797.0068     4359.9067   
 2590  39.0442  5916(77)         5833.0845     4358.8130   
 2591  39.0592  5820(76)         5833.5259     4357.7192   
 2592  39.0742  5788(76)         5798.7061     4356.6250   
 2593  39.0892  5716(76)         5733.6172     4355.5313   
 2594  39.1042  5565(75)         5649.1182     4354.4375   
 2595  39.1192  5589(75)         5553.9883     4353.3438   
 2596  39.1342  5588(75)         5456.4404     4352.2500   
 2597  39.1492  5312(73)         5362.4277     4351.1563   
 2598  39.1642  5176(72)         5275.6987     4350.0625   
 2599  39.1792  5361(73)         5198.3447     4348.9688   
 2600  39.1942  5194(72)         5131.1802     4347.8750   
 2601  39.2092  5152(72)         5074.2515     4346.7813   
 2602  39.2242  5105(71)         5027.1245     4345.6875   
 2603  39.2392  5121(72)         4989.1157     4344.5938   
 2604  39.2542  5017(71)         4959.8652     4343.5000   
 2605  39.2692  5169(72)         4937.8467     4342.4063   
 2606  39.2842  5091(71)         4922.6470     4341.3125   
 2607  39.2992  5243(72)         4913.6924     4340.2188   
 2608  39.3142  5046(71)         4910.4893     4339.1250   
 2609  39.3292  5286(73)         4912.2988     4338.0313   
 2610  39.3442  5128(72)         4918.6851     4336.9375   
 2611  39.3592  5184(72)         4929.2090     4335.8438   
 2612  39.3742  5302(73)         4943.2783     4334.7500   
 2613  39.3892  5272(73)         4960.5649     4333.6563   
 2614  39.4042  5284(73)         4980.8364     4332.5625   
 2615  39.4192  5463(74)         5004.1162     4331.4688   
 2616  39.4342  5491(74)         5030.5894     4330.3750   
 2617  39.4492  5662(75)         5060.5576     4329.2808   
 2618  39.4642  5747(76)         5094.0127     4328.1870   
 2619  39.4792  5730(76)         5130.3252     4327.0933   
 2620  39.4942  5659(75)         5167.8965     4326.0000   
 2621  39.5092  5938(77)         5204.1260     4324.9063   
 2622  39.5242  5830(76)         5235.2866     4323.8125   
 2623  39.5392  5816(76)         5257.6997     4322.7183   
 2624  39.5542  5638(75)         5268.3643     4321.6245   
 2625  39.5692  5549(74)         5266.0220     4320.5308   
 2626  39.5842  5542(74)         5251.5469     4319.4370   
 2627  39.5992  5507(74)         5227.6104     4318.3433   
 2628  39.6142  5412(74)         5196.9854     4317.2495   
 2629  39.6292  5307(73)         5165.2114     4316.1558   
 2630  39.6442  5356(73)         5134.6426     4315.0620   
 2631  39.6592  5156(72)         5107.7261     4313.9683   
 2632  39.6742  5186(72)         5086.1392     4312.8745   
 2633  39.6892  5072(71)         5070.9380     4311.7808   
 2634  39.7042  4984(71)         5062.8892     4310.6870   
 2635  39.7192  5058(71)         5062.0405     4309.5933   
 2636  39.7342  5163(72)         5068.8262     4308.4995   
 2637  39.7492  5022(71)         5083.4800     4307.4058   
 2638  39.7642  5016(71)         5106.3154     4306.3120   
 2639  39.7792  5019(71)         5137.7593     4305.2183   
 2640  39.7942  5036(71)         5178.3848     4304.1245   
 2641  39.8092  5149(72)         5228.9414     4303.0308   
 2642  39.8242  5177(72)         5289.7520     4301.9370   
 2643  39.8392  5132(72)         5363.1377     4300.8433   
 2644  39.8542  5158(72)         5449.7656     4299.7495   
 2645  39.8692  5283(73)         5551.0239     4298.6558   
 2646  39.8842  5465(74)         5668.3105     4297.5620   
 2647  39.8992  5329(73)         5802.8398     4296.4683   
 2648  39.9142  5580(75)         5955.3599     4295.3740   
 2649  39.9292  5742(76)         6125.4785     4294.2803   
 2650  39.9442  5908(77)         6311.1577     4293.1870   
 2651  39.9592  5981(77)         6507.6387     4292.0933   
 2652  39.9742  5893(77)         6706.5942     4290.9995   
 2653  39.9892  6135(78)         6895.9150     4289.9058   
 2654  40.0042  6180(79)         7060.0537     4288.8115   
 2655  40.0192  6061(78)         7183.4580     4287.7178   
 2656  40.0342  6098(78)         7254.2744     4286.6240   
 2657  40.0492  6128(78)         7268.4937     4285.5303   
 2658  40.0642  6039(78)         7232.0195     4284.4365   
 2659  40.0792  5961(77)         7157.0225     4283.3433   
 2660  40.0942  5816(76)         7060.9365     4282.2495   
 2661  40.1092  5990(77)         6960.3164     4281.1553   
 2662  40.1242  5895(77)         6868.6016     4280.0615   
 2663  40.1392  6034(78)         6795.1309     4278.9678   
 2664  40.1542  6126(78)         6745.4253     4277.8740   
 2665  40.1692  6326(80)         6718.7031     4276.7803   
 2666  40.1842  6538(81)         6722.1533     4275.6865   
 2667  40.1992  6635(81)         6751.5537     4274.5928   
 2668  40.2142  6995(84)         6804.9131     4273.4990   
 2669  40.2292  7269(85)         6878.8779     4272.4053   
 2670  40.2442  7568(87)         6967.9878     4271.3115   
 2671  40.2592  7798(88)         7063.9189     4270.2178   
 2672  40.2742  7827(88)         7155.3247     4269.1240   
 2673  40.2892  8024(90)         7228.9180     4268.0303   
 2674  40.3042  7973(89)         7271.8623     4266.9365   
 2675  40.3192  7825(88)         7275.0513     4265.8428   
 2676  40.3342  7711(88)         7235.3232     4264.7490   
 2677  40.3492  7546(87)         7156.2383     4263.6553   
 2678  40.3642  7438(86)         7045.6982     4262.5615   
 2679  40.3792  7068(84)         6913.5005     4261.4673   
 2680  40.3942  6637(81)         6769.1831     4260.3740   
 2681  40.4092  6460(80)         6619.8340     4259.2803   
 2682  40.4242  6334(80)         6471.5225     4258.1865   
 2683  40.4392  6133(78)         6328.8931     4257.0928   
 2684  40.4542  5861(77)         6195.8169     4255.9990   
 2685  40.4692  5703(76)         6075.5098     4254.9053   
 2686  40.4842  5599(75)         5969.9966     4253.8110   
 2687  40.4992  5476(74)         5881.9224     4252.7173   
 2688  40.5142  5626(75)         5811.8159     4251.6235   
 2689  40.5292  5477(74)         5760.1504     4250.5298   
 2690  40.5442  5640(75)         5726.6221     4249.4365   
 2691  40.5592  5667(75)         5712.2134     4248.3428   
 2692  40.5742  5769(76)         5716.4971     4247.2485   
 2693  40.5892  5879(77)         5739.5542     4246.1548   
 2694  40.6042  6321(80)         5781.4590     4245.0610   
 2695  40.6192  6453(80)         5842.1196     4243.9673   
 2696  40.6342  6771(82)         5920.9780     4242.8735   
 2697  40.6492  6973(84)         6016.8032     4241.7798   
 2698  40.6642  7428(86)         6126.0435     4240.6860   
 2699  40.6792  7400(86)         6243.5078     4239.5923   
 2700  40.6942  7709(88)         6360.8823     4238.4985   
 2701  40.7092  7798(88)         6466.8076     4237.4048   
 2702  40.7242  7977(89)         6547.9619     4236.3110   
 2703  40.7392  7920(89)         6591.5127     4235.2173   
 2704  40.7542  7595(87)         6588.3564     4234.1235   
 2705  40.7692  7456(86)         6536.5088     4233.0298   
 2706  40.7842  7309(85)         6441.0151     4231.9360   
 2707  40.7992  7058(84)         6312.6475     4230.8423   
 2708  40.8142  6551(81)         6164.4614     4229.7485   
 2709  40.8292  6385(80)         6008.6899     4228.6548   
 2710  40.8442  6027(78)         5856.2554     4227.5610   
 2711  40.8592  5827(76)         5710.8398     4226.4673   
 2712  40.8742  5642(75)         5577.5005     4225.3735   
 2713  40.8892  5534(74)         5457.8076     4224.2798   
 2714  40.9042  5349(73)         5351.9336     4223.1860   
 2715  40.9192  5143(72)         5259.3008     4222.0923   
 2716  40.9342  5200(72)         5179.0713     4220.9985   
 2717  40.9492  5066(71)         5110.0786     4219.9043   
 2718  40.9642  5015(71)         5051.3135     4218.8105   
 2719  40.9792  4903(70)         5001.6235     4217.7168   
 2720  40.9942  4855(70)         4960.1455     4216.6235   
 2721  41.0092  4789(69)         4926.0732     4215.5298   
 2722  41.0242  4821(69)         4898.6919     4214.4360   
 2723  41.0392  4858(70)         4877.3779     4213.3418   
 2724  41.0542  4752(69)         4861.5176     4212.2480   
 2725  41.0692  4707(69)         4850.4556     4211.1543   
 2726  41.0842  4714(69)         4843.4463     4210.0605   
 2727  41.0992  4871(70)         4839.6040     4208.9668   
 2728  41.1142  4744(69)         4837.9028     4207.8730   
 2729  41.1292  4733(69)         4837.2617     4206.7793   
 2730  41.1442  4686(68)         4836.6987     4205.6855   
 2731  41.1592  4699(69)         4835.5054     4204.5918   
 2732  41.1742  4591(68)         4833.3301     4203.4980   
 2733  41.1892  4685(68)         4830.0889     4202.4043   
 2734  41.2042  4592(68)         4825.7881     4201.3105   
 2735  41.2192  4640(68)         4820.2563     4200.2168   
 2736  41.2342  4678(68)         4813.0962     4199.1230   
 2737  41.2492  4686(68)         4803.8408     4198.0293   
 2738  41.2642  4601(68)         4791.9819     4196.9355   
 2739  41.2792  4759(69)         4777.5435     4195.8418   
 2740  41.2942  4498(67)         4760.9937     4194.7480   
 2741  41.3092  4632(68)         4742.8540     4193.6543   
 2742  41.3242  4713(69)         4724.9834     4192.5605   
 2743  41.3392  4732(69)         4708.0957     4191.4668   
 2744  41.3542  4783(69)         4693.0742     4190.3730   
 2745  41.3692  4868(70)         4680.5361     4189.2793   
 2746  41.3842  4684(68)         4670.8345     4188.1855   
 2747  41.3992  4589(68)         4664.0928     4187.0918   
 2748  41.4142  4723(69)         4660.2373     4185.9976   
 2749  41.4292  4633(68)         4659.0210     4184.9038   
 2750  41.4442  4751(69)         4660.0195     4183.8105   
 2751  41.4592  4705(69)         4662.6479     4182.7168   
 2752  41.4742  4702(69)         4666.2031     4181.6230   
 2753  41.4892  4718(69)         4669.9702     4180.5293   
 2754  41.5042  4640(68)         4673.4346     4179.4351   
 2755  41.5192  4672(68)         4676.2236     4178.3413   
 2756  41.5342  4736(69)         4678.5342     4177.2476   
 2757  41.5492  4606(68)         4680.8857     4176.1538   
 2758  41.5642  4810(69)         4684.1494     4175.0601   
 2759  41.5792  4692(68)         4688.8989     4173.9663   
 2760  41.5942  4755(69)         4696.0229     4172.8730   
 2761  41.6092  4705(69)         4706.1743     4171.7788   
 2762  41.6242  4730(69)         4719.8774     4170.6851   
 2763  41.6392  4744(69)         4737.8652     4169.5913   
 2764  41.6542  4839(70)         4759.8677     4168.4976   
 2765  41.6692  4901(70)         4786.4482     4167.4038   
 2766  41.6842  4889(70)         4817.7676     4166.3101   
 2767  41.6992  4968(70)         4853.8662     4165.2163   
 2768  41.7142  5128(72)         4896.6548     4164.1226   
 2769  41.7292  5046(71)         4941.7188     4163.0288   
 2770  41.7442  5104(71)         4990.9180     4161.9351   
 2771  41.7592  5277(73)         5043.4731     4160.8413   
 2772  41.7742  5363(73)         5099.5537     4159.7476   
 2773  41.7892  5307(73)         5159.6563     4158.6538   
 2774  41.8042  5468(74)         5224.8208     4157.5601   
 2775  41.8192  5579(75)         5296.5469     4156.4663   
 2776  41.8342  5619(75)         5376.3267     4155.3726   
 2777  41.8492  5803(76)         5465.1211     4154.2788   
 2778  41.8642  5864(77)         5562.7788     4153.1851   
 2779  41.8792  5939(77)         5667.4878     4152.0908   
 2780  41.8942  5959(77)         5775.1851     4150.9971   
 2781  41.9092  6171(79)         5879.4863     4149.9038   
 2782  41.9242  6020(78)         5971.9180     4148.8101   
 2783  41.9392  6172(79)         6043.1421     4147.7163   
 2784  41.9542  6037(78)         6085.0073     4146.6226   
 2785  41.9692  5983(77)         6092.8633     4145.5288   
 2786  41.9842  5834(76)         6068.2593     4144.4346   
 2787  41.9992  5640(75)         6014.2109     4143.3408   
 2788  42.0142  5610(75)         5940.5127     4142.2471   
 2789  42.0292  5603(75)         5856.8721     4141.1533   
 2790  42.0442  5499(74)         5771.5161     4140.0601   
 2791  42.0592  5426(74)         5690.8408     4138.9663   
 2792  42.0742  5375(73)         5618.4717     4137.8721   
 2793  42.0892  5343(73)         5555.9043     4136.7783   
 2794  42.1042  5333(73)         5502.6685     4135.6846   
 2795  42.1192  5253(72)         5456.5029     4134.5908   
 2796  42.1342  5159(72)         5415.0635     4133.4971   
 2797  42.1492  5129(72)         5375.9648     4132.4033   
 2798  42.1642  5063(71)         5337.6533     4131.3096   
 2799  42.1792  4951(70)         5299.8438     4130.2158   
 2800  42.1942  4975(71)         5263.4209     4129.1221   
 2801  42.2092  5082(71)         5230.0508     4128.0283   
 2802  42.2242  4923(70)         5201.6660     4126.9346   
 2803  42.2392  4835(70)         5179.9194     4125.8408   
 2804  42.2542  4864(70)         5165.9658     4124.7471   
 2805  42.2692  4947(70)         5160.3604     4123.6533   
 2806  42.2842  4960(70)         5163.0522     4122.5596   
 2807  42.2992  4871(70)         5173.4702     4121.4658   
 2808  42.3142  4885(70)         5190.6582     4120.3721   
 2809  42.3292  5065(71)         5213.4829     4119.2783   
 2810  42.3442  5064(71)         5240.9531     4118.1846   
 2811  42.3592  5078(71)         5272.2275     4117.0908   
 2812  42.3742  5070(71)         5306.9395     4115.9971   
 2813  42.3892  5338(73)         5344.8652     4114.9033   
 2814  42.4042  5417(74)         5385.0962     4113.8096   
 2815  42.4192  5420(74)         5425.9263     4112.7158   
 2816  42.4342  5520(74)         5464.3325     4111.6221   
 2817  42.4492  5508(74)         5496.2168     4110.5278   
 2818  42.4642  5393(73)         5517.0615     4109.4341   
 2819  42.4792  5455(74)         5522.2480     4108.3403   
 2820  42.4942  5281(73)         5509.6025     4107.2471   
 2821  42.5092  5447(74)         5479.0698     4106.1533   
 2822  42.5242  5348(73)         5432.4912     4105.0596   
 2823  42.5392  5236(72)         5373.3696     4103.9653   
 2824  42.5542  4955(70)         5305.7192     4102.8716   
 2825  42.5692  4967(70)         5233.3789     4101.7778   
 2826  42.5842  4817(69)         5159.7422     4100.6841   
 2827  42.5992  4738(69)         5087.3433     4099.5903   
 2828  42.6142  4701(69)         5018.1587     4098.4966   
 2829  42.6292  4759(69)         4953.5273     4097.4028   
 2830  42.6442  4585(68)         4893.9868     4096.3091   
 2831  42.6592  4604(68)         4839.9575     4095.2153   
 2832  42.6742  4661(68)         4791.5361     4094.1216   
 2833  42.6892  4503(67)         4748.6733     4093.0278   
 2834  42.7042  4549(67)         4711.2261     4091.9341   
 2835  42.7192  4567(68)         4678.9917     4090.8406   
 2836  42.7342  4510(67)         4651.7256     4089.7466   
 2837  42.7492  4385(66)         4629.9697     4088.6528   
 2838  42.7642  4347(66)         4611.9434     4087.5591   
 2839  42.7792  4618(68)         4598.2563     4086.4653   
 2840  42.7942  4565(68)         4587.3242     4085.3716   
 2841  42.8092  4486(67)         4581.8062     4084.2778   
 2842  42.8242  4522(67)         4580.2769     4083.1838   
 2843  42.8392  4434(67)         4581.6646     4081.0439   
 2844  42.8542  4530(67)         4585.7979     4077.7083   
 2845  42.8692  4520(67)         4593.8145     4074.3728   
 2846  42.8842  4589(68)         4605.5352     4071.0371   
 2847  42.8992  4518(67)         4620.6670     4067.7017   
 2848  42.9142  4460(67)         4638.5698     4064.3652   
 2849  42.9292  4540(67)         4658.2344     4061.0295   
 2850  42.9442  4576(68)         4678.2681     4057.6941   
 2851  42.9592  4645(68)         4696.8477     4054.3584   
 2852  42.9742  4535(67)         4712.1011     4051.0229   
 2853  42.9892  4514(67)         4722.3979     4047.6873   
 2854  43.0042  4574(68)         4727.1299     4044.3508   
 2855  43.0192  4545(67)         4725.6797     4041.0154   
 2856  43.0342  4508(67)         4719.1851     4037.6797   
 2857  43.0492  4550(67)         4709.1045     4034.3442   
 2858  43.0642  4654(68)         4696.8770     4031.0085   
 2859  43.0792  4578(68)         4683.5459     4027.6731   
 2860  43.0942  4438(67)         4669.5469     4024.3374   
 2861  43.1092  4561(68)         4654.7168     4021.0010   
 2862  43.1242  4636(68)         4638.6006     4017.6655   
 2863  43.1392  4569(68)         4620.6274     4014.3298   
 2864  43.1542  4426(67)         4600.4873     4010.9944   
 2865  43.1692  4510(67)         4578.3154     4007.6587   
 2866  43.1842  4443(67)         4554.6724     4004.3232   
 2867  43.1992  4477(67)         4530.5332     4000.9868   
 2868  43.2142  4412(66)         4506.9219     3997.6511   
 2869  43.2292  4400(66)         4484.8086     3994.3157   
 2870  43.2442  4439(67)         4464.9761     3990.9800   
 2871  43.2592  4439(67)         4447.9849     3987.6445   
 2872  43.2742  4406(66)         4434.2837     3984.3088   
 2873  43.2892  4422(66)         4423.9033     3980.9724   
 2874  43.3042  4428(67)         4417.0596     3977.6370   
 2875  43.3192  4433(67)         4413.8013     3974.3013   
 2876  43.3342  4554(67)         4414.2534     3970.9658   
 2877  43.3492  4517(67)         4417.9585     3967.6301   
 2878  43.3642  4691(68)         4426.0283     3964.2947   
 2879  43.3792  4539(67)         4438.0313     3960.9583   
 2880  43.3942  4753(69)         4453.9180     3957.6226   
 2881  43.4092  4749(69)         4473.7231     3954.2871   
 2882  43.4242  4780(69)         4497.0615     3950.9514   
 2883  43.4392  4871(70)         4523.2622     3947.6160   
 2884  43.4542  4817(69)         4551.2104     3944.2803   
 2885  43.4692  5004(71)         4579.2603     3940.9448   
 2886  43.4842  5079(71)         4605.2852     3937.6084   
 2887  43.4992  4956(70)         4626.8735     3934.2727   
 2888  43.5142  4948(70)         4641.7681     3930.9373   
 2889  43.5292  5004(71)         4648.3198     3927.6016   
 2890  43.5442  5020(71)         4645.8682     3924.2661   
 2891  43.5592  4907(70)         4634.8325     3920.9304   
 2892  43.5742  4896(70)         4616.4902     3917.5940   
 2893  43.5892  4804(69)         4592.6055     3914.2583   
 2894  43.6042  4765(69)         4565.0186     3910.9229   
 2895  43.6192  4931(70)         4535.4033     3907.5872   
 2896  43.6342  4701(69)         4505.1509     3904.2517   
 2897  43.6492  4670(68)         4475.3506     3900.9160   
 2898  43.6642  4531(67)         4446.8179     3897.5796   
 2899  43.6792  4589(68)         4420.2041     3894.2441   
 2900  43.6942  4501(67)         4395.7866     3890.9084   
 2901  43.7092  4500(67)         4373.8052     3887.5730   
 2902  43.7242  4398(66)         4354.7568     3884.2373   
 2903  43.7392  4404(66)         4337.5415     3880.9019   
 2904  43.7542  4430(67)         4322.3555     3877.5654   
 2905  43.7692  4415(66)         4308.8267     3874.2297   
 2906  43.7842  4302(66)         4296.5322     3870.8943   
 2907  43.7992  4359(66)         4285.1006     3867.5586   
 2908  43.8142  4279(65)         4274.4937     3864.2231   
 2909  43.8292  4289(65)         4264.2979     3860.8875   
 2910  43.8442  4226(65)         4254.9507     3857.5520   
 2911  43.8592  4229(65)         4246.5557     3854.2156   
 2912  43.8742  4204(65)         4239.5674     3850.8799   
 2913  43.8892  4267(65)         4232.1436     3847.5444   
 2914  43.9042  4365(66)         4228.6274     3844.2087   
 2915  43.9192  4308(66)         4227.4507     3840.8733   
 2916  43.9342  4173(65)         4228.3613     3837.5376   
 2917  43.9492  4263(65)         4231.1953     3834.2012   
 2918  43.9642  4365(66)         4235.7700     3830.8657   
 2919  43.9792  4154(64)         4241.2554     3827.5300   
 2920  43.9942  4317(66)         4247.1528     3824.1946   
 2921  44.0092  4346(66)         4252.7441     3820.8589   
 2922  44.0242  4321(66)         4257.4346     3817.5234   
 2923  44.0392  4308(66)         4260.8364     3814.1870   
 2924  44.0542  4298(66)         4262.9092     3810.8513   
 2925  44.0692  4210(65)         4263.7725     3807.5159   
 2926  44.0842  4318(66)         4264.2568     3804.1802   
 2927  44.0992  4380(66)         4264.7021     3800.8447   
 2928  44.1142  4323(66)         4265.4746     3797.5090   
 2929  44.1292  4412(66)         4266.7070     3794.1726   
 2930  44.1442  4342(66)         4268.4727     3790.8372   
 2931  44.1592  4363(66)         4270.2651     3787.5015   
 2932  44.1742  4366(66)         4272.0986     3784.1660   
 2933  44.1892  4181(65)         4272.5400     3780.8303   
 2934  44.2042  4258(65)         4275.2651     3777.4949   
 2935  44.2192  4226(65)         4278.0459     3774.1592   
 2936  44.2342  4324(66)         4283.1689     3770.8228   
 2937  44.2492  4384(66)         4290.6572     3767.4873   
 2938  44.2642  4325(66)         4301.2153     3764.1516   
 2939  44.2792  4355(66)         4314.9673     3760.8162   
 2940  44.2942  4507(67)         4332.2480     3757.4805   
 2941  44.3092  4517(67)         4352.6548     3754.1450   
 2942  44.3242  4448(67)         4375.1895     3750.8086   
 2943  44.3392  4528(67)         4399.5635     3747.4729   
 2944  44.3542  4512(67)         4424.2588     3744.1375   
 2945  44.3692  4509(67)         4447.8672     3740.8018   
 2946  44.3842  4585(68)         4468.8374     3737.4663   
 2947  44.3992  4690(68)         4485.7202     3734.1306   
 2948  44.4142  4632(68)         4496.4087     3730.7942   
 2949  44.4292  4543(67)         4499.5601     3727.4587   
 2950  44.4442  4642(68)         4494.0757     3724.1230   
 2951  44.4592  4500(67)         4479.6265     3720.7874   
 2952  44.4742  4490(67)         4456.8501     3717.4519   
 2953  44.4892  4453(67)         4427.2808     3714.1162   
 2954  44.5042  4431(67)         4393.0269     3710.7798   
 2955  44.5192  4363(66)         4356.3872     3707.4443   
 2956  44.5342  4353(66)         4319.4346     3704.1086   
 2957  44.5492  4328(66)         4283.8379     3700.7732   
 2958  44.5642  4349(66)         4250.7842     3697.4375   
 2959  44.5792  4384(66)         4221.0220     3694.1021   
 2960  44.5942  4332(66)         4194.9551     3690.7664   
 2961  44.6092  4339(66)         4172.7212     3687.4299   
 2962  44.6242  4369(66)         4154.3340     3684.0945   
 2963  44.6392  4379(66)         4139.6904     3680.7588   
 2964  44.6542  4369(66)         4128.6685     3677.4233   
 2965  44.6692  4418(66)         4121.1104     3674.0876   
 2966  44.6842  4405(66)         4114.7168     3670.7522   
 2967  44.6992  4464(67)         4113.5728     3667.4158   
 2968  44.7142  4510(67)         4115.2754     3664.0801   
 2969  44.7292  4516(67)         4119.5781     3660.7446   
 2970  44.7442  4429(67)         4125.7651     3657.4089   
 2971  44.7592  4564(68)         4133.4946     3654.0735   
 2972  44.7742  4481(67)         4141.4399     3650.7378   
 2973  44.7892  4589(68)         4148.8433     3647.4014   
 2974  44.8042  4504(67)         4154.7217     3644.0659   
 2975  44.8192  4624(68)         4158.3066     3640.7302   
 2976  44.8342  4497(67)         4159.2290     3637.3948   
 2977  44.8492  4418(66)         4157.6313     3634.0591   
 2978  44.8642  4481(67)         4154.1436     3630.7236   
 2979  44.8792  4543(67)         4149.7285     3627.3872   
 2980  44.8942  4427(67)         4145.4854     3624.0515   
 2981  44.9092  4263(65)         4142.4883     3620.7161   
 2982  44.9242  4402(66)         4141.5601     3617.3804   
 2983  44.9392  4417(66)         4143.4131     3614.0449   
 2984  44.9542  4318(66)         4148.5308     3610.7092   
 2985  44.9692  4502(67)         4157.2217     3607.3738   
 2986  44.9842  4451(67)         4169.6421     3604.0374   
 2987  44.9992  4438(67)         4185.7832     3600.7017   
 2988  45.0142  4420(66)         4205.4771     3597.3662   
 2989  45.0292  4328(66)         4228.3623     3594.0305   
 2990  45.0442  4389(66)         4253.8730     3590.6951   
 2991  45.0592  4504(67)         4281.2656     3587.3594   
 2992  45.0742  4437(67)         4309.7227     3584.0229   
 2993  45.0892  4385(66)         4338.4863     3580.6875   
 2994  45.1042  4275(65)         4367.1240     3577.3518   
 2995  45.1192  4292(66)         4395.6768     3574.0164   
 2996  45.1342  4291(66)         4424.5801     3570.6807   
 2997  45.1492  4348(66)         4455.1611     3567.3452   
 2998  45.1642  4439(67)         4488.5264     3564.0088   
 2999  45.1792  4428(67)         4525.8516     3560.6731   
 3000  45.1942  4425(67)         4568.0522     3557.3376   
 3001  45.2092  4510(67)         4615.5938     3554.0020   
 3002  45.2242  4552(67)         4668.4077     3550.6665   
 3003  45.2392  4411(66)         4726.0210     3547.3308   
 3004  45.2542  4378(66)         4786.6099     3543.9944   
 3005  45.2692  4505(67)         4847.8750     3540.6589   
 3006  45.2842  4542(67)         4906.7651     3537.3232   
 3007  45.2992  4671(68)         4958.7100     3533.9875   
 3008  45.3142  4663(68)         4998.6299     3530.6521   
 3009  45.3292  4501(67)         5021.5762     3527.3164   
 3010  45.3442  4579(68)         5023.8149     3523.9810   
 3011  45.3592  4565(68)         5003.7881     3520.6445   
 3012  45.3742  4590(68)         4962.5894     3517.3088   
 3013  45.3892  4683(68)         4903.6660     3513.9734   
 3014  45.4042  4594(68)         4831.9346     3510.6377   
 3015  45.4192  4566(68)         4752.5659     3507.3022   
 3016  45.4342  4436(67)         4670.2886     3503.9666   
 3017  45.4492  4506(67)         4588.7480     3500.6301   
 3018  45.4642  4407(66)         4510.5171     3497.2947   
 3019  45.4792  4415(66)         4437.1182     3493.9590   
 3020  45.4942  4306(66)         4369.3589     3490.6235   
 3021  45.5092  4207(65)         4307.5625     3487.2878   
 3022  45.5242  4308(66)         4251.7021     3483.9524   
 3023  45.5392  4185(65)         4201.4727     3480.6160   
 3024  45.5542  4266(65)         4156.8291     3477.2803   
 3025  45.5692  4201(65)         4117.2759     3473.9448   
 3026  45.5842  4185(65)         4082.4224     3470.6091   
 3027  45.5992  4164(65)         4051.8779     3467.2737   
 3028  45.6142  4218(65)         4025.2722     3463.9380   
 3029  45.6292  4239(65)         4002.2607     3460.6016   
 3030  45.6442  4203(65)         3982.5525     3457.2661   
 3031  45.6592  4082(64)         3965.8738     3453.9304   
 3032  45.6742  4280(65)         3951.9902     3450.5950   
 3033  45.6892  4151(64)         3940.6887     3447.2593   
 3034  45.7042  4130(64)         3931.7703     3443.9238   
 3035  45.7192  4163(65)         3925.0608     3440.5881   
 3036  45.7342  4277(65)         3920.2964     3437.2517   
 3037  45.7492  4137(64)         3917.2764     3433.9163   
 3038  45.7642  4094(64)         3915.7544     3430.5806   
 3039  45.7792  4290(65)         3915.4888     3427.2451   
 3040  45.7942  4106(64)         3916.2708     3423.9094   
 3041  45.8092  4237(65)         3917.9673     3420.5740   
 3042  45.8242  4283(65)         3920.9028     3417.2375   
 3043  45.8392  4116(64)         3924.2869     3413.9019   
 3044  45.8542  4273(65)         3929.0586     3410.5664   
 3045  45.8692  4181(65)         3935.3044     3407.2307   
 3046  45.8842  4245(65)         3943.3391     3403.8953   
 3047  45.8992  4161(65)         3953.4797     3400.5596   
 3048  45.9142  4218(65)         3966.0327     3397.2231   
 3049  45.9292  4225(65)         3981.2759     3393.8877   
 3050  45.9442  4192(65)         3999.4810     3390.5520   
 3051  45.9592  4245(65)         4020.9116     3387.2166   
 3052  45.9742  4219(65)         4045.8281     3383.8809   
 3053  45.9892  4157(64)         4074.4934     3380.5454   
 3054  46.0042  4272(65)         4107.1792     3377.2090   
 3055  46.0192  4206(65)         4144.1289     3373.8733   
 3056  46.0342  4239(65)         4186.0020     3370.5378   
 3057  46.0492  4391(66)         4230.5522     3367.2021   
 3058  46.0642  4446(67)         4281.8706     3363.8667   
 3059  46.0792  4506(67)         4338.5552     3360.5310   
 3060  46.0942  4404(66)         4400.8696     3357.1956   
 3061  46.1092  4413(66)         4469.2480     3353.8591   
 3062  46.1242  4545(67)         4544.0693     3350.5234   
 3063  46.1392  4565(68)         4625.7593     3347.1877   
 3064  46.1542  4700(69)         4714.6675     3343.8523   
 3065  46.1692  4630(68)         4811.1099     3340.5166   
 3066  46.1842  4763(69)         4914.8521     3337.1812   
 3067  46.1992  4742(69)         5025.5898     3333.8447   
 3068  46.2142  4869(70)         5142.5215     3330.5090   
 3069  46.2292  4849(70)         5263.1079     3327.1736   
 3070  46.2442  4983(71)         5384.6084     3323.8379   
 3071  46.2592  4869(70)         5502.2979     3320.5024   
 3072  46.2742  4848(70)         5611.4346     3317.1667   
 3073  46.2892  4854(70)         5705.0493     3313.8303   
 3074  46.3042  4896(70)         5776.2061     3310.4949   
 3075  46.3192  4732(69)         5818.8633     3307.1592   
 3076  46.3342  4786(69)         5829.0298     3303.8237   
 3077  46.3492  4742(69)         5805.8096     3300.4880   
 3078  46.3642  4616(68)         5752.0337     3297.1526   
 3079  46.3792  4622(68)         5673.4893     3293.8162   
 3080  46.3942  4570(68)         5577.8975     3290.4805   
 3081  46.4092  4510(67)         5473.4209     3287.1450   
 3082  46.4242  4475(67)         5367.6084     3283.8093   
 3083  46.4392  4401(66)         5266.7222     3280.4739   
 3084  46.4542  4226(65)         5175.3433     3277.1382   
 3085  46.4692  4342(66)         5096.6631     3273.8027   
 3086  46.4842  4317(66)         5032.3145     3270.4663   
 3087  46.4992  4438(67)         4983.6563     3267.1306   
 3088  46.5142  4324(66)         4950.5083     3263.7952   
 3089  46.5292  4155(64)         4932.2676     3260.4595   
 3090  46.5442  4233(65)         4927.8018     3257.1240   
 3091  46.5592  4269(65)         4934.8813     3253.7883   
 3092  46.5742  4244(65)         4950.8237     3250.4519   
 3093  46.5892  4140(64)         4971.9922     3247.1165   
 3094  46.6042  4261(65)         4993.6431     3243.7808   
 3095  46.6192  4318(66)         5010.2485     3240.4453   
 3096  46.6342  4260(65)         5017.4600     3237.1096   
 3097  46.6492  4227(65)         5011.4678     3233.7742   
 3098  46.6642  4230(65)         4989.3818     3230.4377   
 3099  46.6792  4368(66)         4950.8418     3227.1021   
 3100  46.6942  4245(65)         4897.4766     3223.7666   
 3101  46.7092  4137(64)         4832.1245     3220.4309   
 3102  46.7242  4187(65)         4758.9639     3217.0955   
 3103  46.7392  4175(65)         4681.2734     3213.7598   
 3104  46.7542  4077(64)         4602.1196     3210.4233   
 3105  46.7692  4033(64)         4523.7305     3207.0879   
 3106  46.7842  4074(64)         4447.6836     3203.7522   
 3107  46.7992  4025(63)         4375.0083     3200.4167   
 3108  46.8142  4140(64)         4306.7119     3197.0811   
 3109  46.8292  4125(64)         4243.0376     3193.7456   
 3110  46.8442  4181(65)         4184.5762     3190.4099   
 3111  46.8592  4096(64)         4131.6216     3187.0735   
 3112  46.8742  4046(64)         4084.3657     3183.7380   
 3113  46.8892  4111(64)         4042.8281     3180.4023   
 3114  46.9042  4102(64)         4006.9360     3177.0669   
 3115  46.9192  4094(64)         3976.5400     3173.7312   
 3116  46.9342  4029(63)         3951.4441     3170.3958   
 3117  46.9492  4022(63)         3931.4541     3167.0593   
 3118  46.9642  4118(64)         3916.2695     3163.7236   
 3119  46.9792  4037(64)         3905.6533     3160.3882   
 3120  46.9942  4113(64)         3899.3044     3157.0525   
 3121  47.0092  4018(63)         3896.8730     3153.7168   
 3122  47.0242  4054(64)         3897.9446     3150.3813   
 3123  47.0392  4031(63)         3902.0354     3147.0449   
 3124  47.0542  3973(63)         3908.5896     3143.7092   
 3125  47.0692  3894(62)         3916.9949     3140.3738   
 3126  47.0842  4038(64)         3926.5925     3137.0381   
 3127  47.0992  3961(63)         3936.6970     3133.7026   
 3128  47.1142  4055(64)         3946.6145     3130.3669   
 3129  47.1292  3912(63)         3955.6675     3127.0305   
 3130  47.1442  4036(64)         3963.2080     3123.6951   
 3131  47.1592  3959(63)         3969.5090     3121.2068   
 3132  47.1742  3977(63)         3976.7161     3122.1040   
 3133  47.1892  3990(63)         3981.0596     3123.0012   
 3134  47.2042  4042(64)         3982.2322     3123.8984   
 3135  47.2192  3971(63)         3981.3579     3124.7959   
 3136  47.2342  3980(63)         3978.6958     3125.6934   
 3137  47.2492  4052(64)         3975.1216     3126.5906   
 3138  47.2642  3869(62)         3971.6089     3127.4878   
 3139  47.2792  3987(63)         3969.1016     3128.3853   
 3140  47.2942  4019(63)         3968.4072     3129.2825   
 3141  47.3092  3984(63)         3970.2612     3130.1797   
 3142  47.3242  3944(63)         3974.8110     3131.0771   
 3143  47.3392  3949(63)         3982.2976     3131.9746   
 3144  47.3542  3995(63)         3993.0132     3132.8718   
 3145  47.3692  3877(62)         4006.7686     3133.7690   
 3146  47.3842  3925(63)         4023.3713     3134.6663   
 3147  47.3992  3832(62)         4043.0483     3135.5637   
 3148  47.4142  3759(61)         4065.2954     3136.4612   
 3149  47.4292  3955(63)         4089.5483     3137.3584   
 3150  47.4442  3926(63)         4114.8022     3138.2556   
 3151  47.4592  3967(63)         4139.5103     3139.1528   
 3152  47.4742  3954(63)         4161.6011     3140.0503   
 3153  47.4892  3931(63)         4178.6733     3140.9475   
 3154  47.5042  3985(63)         4188.3755     3141.8450   
 3155  47.5192  3953(63)         4188.8848     3142.7422   
 3156  47.5342  4095(64)         4179.3633     3143.6396   
 3157  47.5492  3930(63)         4160.1758     3144.5369   
 3158  47.5642  4056(64)         4132.8789     3145.4341   
 3159  47.5792  4012(63)         4099.6445     3146.3313   
 3160  47.5942  4048(64)         4063.1553     3147.2288   
 3161  47.6092  4049(64)         4025.9395     3148.1262   
 3162  47.6242  4186(65)         3990.1692     3149.0234   
 3163  47.6392  4022(63)         3957.6453     3149.9207   
 3164  47.6542  4111(64)         3929.1208     3150.8181   
 3165  47.6692  4151(64)         3905.3914     3151.7153   
 3166  47.6842  4257(65)         3886.6772     3152.6125   
 3167  47.6992  4150(64)         3872.8872     3153.5100   
 3168  47.7142  4249(65)         3863.5942     3154.4075   
 3169  47.7292  4218(65)         3858.1738     3155.3047   
 3170  47.7442  4364(66)         3855.7595     3156.2019   
 3171  47.7592  4134(64)         3855.2126     3157.0991   
 3172  47.7742  4219(65)         3855.2500     3157.9966   
 3173  47.7892  4283(65)         3854.4456     3158.8940   
 3174  47.8042  4249(65)         3851.0840     3159.7913   
 3175  47.8192  4221(65)         3844.7715     3160.6885   
 3176  47.8342  4177(65)         3834.5669     3161.5859   
 3177  47.8492  4100(64)         3820.3179     3162.4832   
 3178  47.8642  4166(65)         3802.5100     3163.3804   
 3179  47.8792  4174(65)         3781.9714     3164.2778   
 3180  47.8942  4110(64)         3760.0471     3165.1753   
 3181  47.9092  4102(64)         3737.7910     3166.0725   
 3182  47.9242  4109(64)         3716.3623     3166.9697   
 3183  47.9392  4020(63)         3696.0789     3167.8669   
 3184  47.9542  3971(63)         3677.7463     3168.7644   
 3185  47.9692  3937(63)         3661.6338     3169.6616   
 3186  47.9842  3946(63)         3647.2737     3170.5591   
 3187  47.9992  3979(63)         3634.7588     3171.4563   
 3188  48.0142  3916(63)         3623.8809     3172.3535   
 3189  48.0292  3899(62)         3614.4514     3173.2510   
 3190  48.0442  3923(63)         3606.2271     3174.1482   
 3191  48.0592  3926(63)         3598.9961     3175.0454   
 3192  48.0742  3859(62)         3592.5425     3175.9429   
 3193  48.0892  3896(62)         3586.6392     3176.8403   
 3194  48.1042  3945(63)         3581.0376     3177.7375   
 3195  48.1192  3857(62)         3575.4119     3178.6348   
 3196  48.1342  3839(62)         3569.7400     3179.5320   
 3197  48.1492  3798(62)         3563.8337     3180.4294   
 3198  48.1642  3944(63)         3557.7056     3181.3269   
 3199  48.1792  3879(62)         3551.4900     3182.2241   
 3200  48.1942  3764(61)         3545.3972     3183.1213   
 3201  48.2092  3851(62)         3539.6851     3184.0188   
 3202  48.2242  3739(61)         3534.6050     3184.9160   
 3203  48.2392  3895(62)         3530.7319     3185.8132   
 3204  48.2542  3950(63)         3527.5425     3186.7107   
 3205  48.2692  3902(62)         3525.5066     3187.6082   
 3206  48.2842  3849(62)         3524.7031     3188.5054   
 3207  48.2992  3734(61)         3525.1838     3189.4026   
 3208  48.3142  3814(62)         3526.9854     3190.2998   
 3209  48.3292  3791(62)         3530.1436     3191.1973   
 3210  48.3442  3859(62)         3534.6968     3192.0945   
 3211  48.3592  3701(61)         3540.7161     3192.9919   
 3212  48.3742  3870(62)         3548.1143     3193.8892   
 3213  48.3892  3768(61)         3557.3154     3194.7866   
 3214  48.4042  3808(62)         3568.2598     3195.6838   
 3215  48.4192  3823(62)         3581.0981     3196.5811   
 3216  48.4342  3854(62)         3595.9939     3197.4783   
 3217  48.4492  3868(62)         3613.1221     3198.3760   
 3218  48.4642  3984(63)         3632.6597     3199.2732   
 3219  48.4792  3777(61)         3654.7869     3200.1704   
 3220  48.4942  3913(63)         3679.6494     3201.0676   
 3221  48.5092  3991(63)         3707.3252     3201.9651   
 3222  48.5242  4052(64)         3737.7969     3202.8623   
 3223  48.5392  4066(64)         3770.7515     3203.7598   
 3224  48.5542  4149(64)         3806.0293     3204.6570   
 3225  48.5692  4269(65)         3842.8323     3205.5542   
 3226  48.5842  4120(64)         3880.1943     3206.4517   
 3227  48.5992  4268(65)         3917.0547     3207.3489   
 3228  48.6142  4166(65)         3951.6602     3208.2461   
 3229  48.6292  4195(65)         3982.7739     3209.1436   
 3230  48.6442  4224(65)         4009.1975     3210.0410   
 3231  48.6592  4363(66)         4030.0669     3210.9382   
 3232  48.6742  4283(65)         4045.1282     3211.8354   
 3233  48.6892  4365(66)         4054.5923     3212.7327   
 3234  48.7042  4216(65)         4059.1086     3213.6301   
 3235  48.7192  4327(66)         4059.2896     3214.5273   
 3236  48.7342  4333(66)         4055.9329     3215.4248   
 3237  48.7492  4205(65)         4049.5325     3216.3220   
 3238  48.7642  4311(66)         4040.8213     3217.2195   
 3239  48.7792  4329(66)         4030.0879     3218.1167   
 3240  48.7942  4321(66)         4017.8047     3219.0139   
 3241  48.8092  4209(65)         4004.3447     3219.9111   
 3242  48.8242  4270(65)         3990.1279     3220.8088   
 3243  48.8392  4206(65)         3974.9543     3221.7061   
 3244  48.8542  4242(65)         3960.1392     3222.6033   
 3245  48.8692  4147(64)         3945.4238     3223.5005   
 3246  48.8842  4200(65)         3930.8772     3224.3979   
 3247  48.8992  4195(65)         3916.5918     3225.2952   
 3248  48.9142  4055(64)         3902.7603     3226.1926   
 3249  48.9292  4099(64)         3889.3823     3227.0898   
 3250  48.9442  4053(64)         3876.7629     3227.9873   
 3251  48.9592  4065(64)         3865.2808     3228.8845   
 3252  48.9742  4054(64)         3855.3684     3229.7817   
 3253  48.9892  4077(64)         3847.5996     3230.6790   
 3254  49.0042  4059(64)         3842.2761     3231.5764   
 3255  49.0192  3903(62)         3839.8052     3232.4739   
 3256  49.0342  3940(63)         3840.3540     3233.3711   
 3257  49.0492  4054(64)         3843.8931     3234.2683   
 3258  49.0642  3985(63)         3850.1807     3235.1658   
 3259  49.0792  3973(63)         3858.7456     3236.0630   
 3260  49.0942  3937(63)         3868.9246     3236.9602   
 3261  49.1092  3951(63)         3879.8862     3237.8577   
 3262  49.1242  4000(63)         3890.6777     3238.7549   
 3263  49.1392  4037(64)         3900.3115     3239.6523   
 3264  49.1542  4051(64)         3907.8281     3240.5496   
 3265  49.1692  3947(63)         3912.4082     3241.4468   
 3266  49.1842  3976(63)         3913.3442     3242.3440   
 3267  49.1992  3924(63)         3910.3071     3243.2417   
 3268  49.2142  3837(62)         3903.3457     3244.1389   
 3269  49.2292  3957(63)         3892.8027     3245.0361   
 3270  49.2442  3874(62)         3879.4766     3245.9333   
 3271  49.2592  3829(62)         3864.1270     3246.8308   
 3272  49.2742  3828(62)         3848.2786     3247.7280   
 3273  49.2892  3801(62)         3832.6326     3248.6255   
 3274  49.3042  3855(62)         3818.2146     3249.5227   
 3275  49.3192  3860(62)         3804.9702     3250.4202   
 3276  49.3342  3804(62)         3793.3535     3251.3174   
 3277  49.3492  3904(62)         3783.2944     3252.2146   
 3278  49.3642  3899(62)         3774.4968     3253.1118   
 3279  49.3792  3854(62)         3766.4917     3254.0095   
 3280  49.3942  3695(61)         3758.6907     3254.9067   
 3281  49.4092  3673(61)         3750.4980     3255.8040   
 3282  49.4242  3708(61)         3741.4019     3256.7012   
 3283  49.4392  3726(61)         3731.0793     3257.5986   
 3284  49.4542  3670(61)         3719.4590     3258.4958   
 3285  49.4692  3690(61)         3706.7295     3259.3931   
 3286  49.4842  3719(61)         3693.2827     3260.2905   
 3287  49.4992  3685(61)         3679.6423     3261.1880   
 3288  49.5142  3677(61)         3666.3403     3262.0852   
 3289  49.5292  3644(60)         3653.8540     3262.9824   
 3290  49.5442  3637(60)         3642.5815     3263.8796   
 3291  49.5592  3586(60)         3632.8110     3264.7771   
 3292  49.5742  3536(59)         3624.7322     3265.6746   
 3293  49.5892  3572(60)         3618.2092     3266.5718   
 3294  49.6042  3688(61)         3613.9309     3267.4690   
 3295  49.6192  3550(60)         3611.4341     3268.3662   
 3296  49.6342  3650(60)         3610.8430     3269.2637   
 3297  49.6492  3621(60)         3612.1555     3270.1609   
 3298  49.6642  3699(61)         3615.4417     3271.0583   
 3299  49.6792  3604(60)         3620.5203     3271.9556   
 3300  49.6942  3675(61)         3627.3948     3272.8530   
 3301  49.7092  3733(61)         3635.9556     3273.7502   
 3302  49.7242  3634(60)         3645.9966     3274.6475   
 3303  49.7392  3609(60)         3657.0659     3275.5447   
 3304  49.7542  3716(61)         3668.9304     3276.4424   
 3305  49.7692  3603(60)         3680.8169     3277.3396   
 3306  49.7842  3654(60)         3692.0610     3278.2368   
 3307  49.7992  3620(60)         3701.5532     3279.1340   
 3308  49.8142  3666(61)         3708.7012     3280.0315   
 3309  49.8292  3702(61)         3712.5054     3280.9287   
 3310  49.8442  3596(60)         3712.6704     3281.8259   
 3311  49.8592  3565(60)         3707.7642     3282.7234   
 3312  49.8742  3642(60)         3700.7761     3283.6208   
 3313  49.8892  3556(60)         3690.9500     3284.5181   
 3314  49.9042  3624(60)         3679.0454     3285.4153   
 3315  49.9192  3621(60)         3665.9639     3286.3125   
 3316  49.9342  3719(61)         3652.4502     3287.2100   
 3317  49.9492  3584(60)         3639.1245     3288.1074   
 3318  49.9642  3540(59)         3626.4512     3289.0046   
 3319  49.9792  3460(59)         3614.6687     3289.9019   
 3320  49.9942  3634(60)         3603.9106     3290.7993   
 3321  50.0092  3441(59)         3594.2100     3291.6965   
 3322  50.0242  3609(60)         3585.5352     3292.5938   
 3323  50.0392  3596(60)         3577.8423     3293.4912   
 3324  50.0542  3510(59)         3571.1033     3294.3887   
 3325  50.0692  3563(60)         3565.3035     3295.2859   
 3326  50.0842  3496(59)         3560.4514     3296.1831   
 3327  50.0992  3566(60)         3555.4402     3295.9509   
 3328  50.1142  3519(59)         3549.7463     3294.0247   
 3329  50.1292  3457(59)         3545.0718     3292.0979   
 3330  50.1442  3505(59)         3541.4646     3290.1719   
 3331  50.1592  3507(59)         3538.9543     3288.2456   
 3332  50.1742  3500(59)         3537.5771     3286.3193   
 3333  50.1892  3641(60)         3537.3711     3284.3933   
 3334  50.2042  3532(59)         3538.3760     3282.4670   
 3335  50.2192  3489(59)         3540.6235     3280.5408   
 3336  50.2342  3552(60)         3544.1443     3278.6143   
 3337  50.2492  3511(59)         3548.9329     3276.6880   
 3338  50.2642  3421(58)         3554.9534     3274.7617   
 3339  50.2792  3599(60)         3562.1047     3272.8357   
 3340  50.2942  3599(60)         3570.2866     3270.9094   
 3341  50.3092  3527(59)         3579.0168     3268.9832   
 3342  50.3242  3553(60)         3587.9575     3267.0566   
 3343  50.3392  3623(60)         3596.5488     3265.1304   
 3344  50.3542  3583(60)         3604.1450     3263.2041   
 3345  50.3692  3620(60)         3610.0718     3261.2781   
 3346  50.3842  3512(59)         3613.6724     3259.3518   
 3347  50.3992  3583(60)         3614.6233     3257.4255   
 3348  50.4142  3544(60)         3612.7117     3255.4990   
 3349  50.4292  3591(60)         3608.0483     3253.5728   
 3350  50.4442  3615(60)         3601.0288     3251.6465   
 3351  50.4592  3535(59)         3592.2190     3249.7205   
 3352  50.4742  3535(59)         3582.2515     3247.7942   
 3353  50.4892  3507(59)         3571.7268     3245.8679   
 3354  50.5042  3632(60)         3561.1409     3243.9414   
 3355  50.5192  3574(60)         3550.8604     3242.0151   
 3356  50.5342  3527(59)         3541.1741     3240.0889   
 3357  50.5492  3555(60)         3532.0637     3238.1628   
 3358  50.5642  3527(59)         3523.6226     3236.2366   
 3359  50.5792  3493(59)         3515.8335     3234.3103   
 3360  50.5942  3423(59)         3508.6616     3232.3843   
 3361  50.6092  3457(59)         3502.0762     3230.4575   
 3362  50.6242  3419(58)         3496.0703     3228.5313   
 3363  50.6392  3422(58)         3490.6746     3226.6052   
 3364  50.6542  3474(59)         3485.8782     3224.6790   
 3365  50.6692  3434(59)         3481.7542     3222.7527   
 3366  50.6842  3473(59)         3478.2471     3220.8267   
 3367  50.6992  3578(60)         3475.3914     3218.8999   
 3368  50.7142  3528(59)         3473.3254     3216.9736   
 3369  50.7292  3373(58)         3471.9456     3215.0476   
 3370  50.7442  3465(59)         3471.5005     3213.1213   
 3371  50.7592  3492(59)         3471.7014     3211.1951   
 3372  50.7742  3470(59)         3472.7661     3209.2690   
 3373  50.7892  3402(58)         3474.6443     3207.3423   
 3374  50.8042  3492(59)         3477.6689     3205.4160   
 3375  50.8192  3474(59)         3481.7786     3203.4900   
 3376  50.8342  3426(59)         3487.0627     3201.5637   
 3377  50.8492  3377(58)         3493.6016     3199.6375   
 3378  50.8642  3467(59)         3501.4692     3197.7114   
 3379  50.8792  3499(59)         3510.4268     3195.7847   
 3380  50.8942  3398(58)         3521.1270     3193.8584   
 3381  50.9092  3446(59)         3533.2876     3191.9324   
 3382  50.9242  3458(59)         3546.8960     3190.0061   
 3383  50.9392  3504(59)         3561.8938     3188.0798   
 3384  50.9542  3418(58)         3578.1604     3186.1538   
 3385  50.9692  3444(59)         3593.4460     3184.2275   
 3386  50.9842  3459(59)         3611.5583     3182.3008   
 3387  50.9992  3535(59)         3629.9983     3180.3748   
 3388  51.0142  3543(60)         3648.0396     3178.4485   
 3389  51.0292  3509(59)         3665.3572     3176.5222   
 3390  51.0442  3591(60)         3681.2949     3174.5962   
 3391  51.0592  3558(60)         3694.7275     3172.6699   
 3392  51.0742  3589(60)         3705.4077     3170.7432   
 3393  51.0892  3556(60)         3713.1462     3168.8171   
 3394  51.1042  3594(60)         3718.1240     3166.8909   
 3395  51.1192  3447(59)         3720.8733     3164.9646   
 3396  51.1342  3486(59)         3722.1956     3163.0386   
 3397  51.1492  3511(59)         3723.0286     3161.1123   
 3398  51.1642  3535(59)         3724.3052     3159.1855   
 3399  51.1792  3515(59)         3726.8284     3157.2595   
 3400  51.1942  3528(59)         3731.1821     3155.3333   
 3401  51.2092  3680(61)         3737.6782     3153.4070   
 3402  51.2242  3669(61)         3746.3301     3151.4810   
 3403  51.2392  3674(61)         3756.8479     3149.5547   
 3404  51.2542  3664(61)         3768.6641     3147.6279   
 3405  51.2692  3585(60)         3780.9727     3145.7017   
 3406  51.2842  3639(60)         3792.8389     3143.7756   
 3407  51.2992  3682(61)         3803.3167     3141.8494   
 3408  51.3142  3620(60)         3811.8740     3139.9231   
 3409  51.3292  3638(60)         3816.3149     3137.9971   
 3410  51.3442  3649(60)         3819.1084     3136.0708   
 3411  51.3592  3621(60)         3819.3562     3134.1440   
 3412  51.3742  3633(60)         3817.5076     3132.2180   
 3413  51.3892  3597(60)         3814.6082     3130.2917   
 3414  51.4042  3649(60)         3811.2288     3128.3655   
 3415  51.4192  3638(60)         3808.0005     3126.4395   
 3416  51.4342  3584(60)         3805.2705     3124.5132   
 3417  51.4492  3627(60)         3803.0752     3122.5864   
 3418  51.4642  3742(61)         3801.1416     3120.6604   
 3419  51.4792  3603(60)         3798.7585     3118.7341   
 3420  51.4942  3547(60)         3795.7297     3116.8079   
 3421  51.5092  3552(60)         3790.9150     3114.8818   
 3422  51.5242  3534(59)         3783.8406     3112.9556   
 3423  51.5392  3529(59)         3774.1350     3111.0288   
 3424  51.5542  3514(59)         3761.7354     3109.1028   
 3425  51.5692  3487(59)         3746.8743     3107.1765   
 3426  51.5842  3464(59)         3730.0298     3105.2502   
 3427  51.5992  3457(59)         3711.8574     3103.3242   
 3428  51.6142  3448(59)         3692.9109     3101.3979   
 3429  51.6292  3453(59)         3673.7942     3099.4712   
 3430  51.6442  3480(59)         3654.9695     3097.5452   
 3431  51.6592  3569(60)         3636.7629     3095.6189   
 3432  51.6742  3530(59)         3619.4121     3093.6926   
 3433  51.6892  3541(60)         3603.0938     3091.7666   
 3434  51.7042  3544(60)         3587.9502     3089.8403   
 3435  51.7192  3634(60)         3574.1030     3087.9141   
 3436  51.7342  3501(59)         3561.6597     3085.9875   
 3437  51.7492  3492(59)         3550.6685     3084.0613   
 3438  51.7642  3517(59)         3541.1450     3082.1350   
 3439  51.7792  3472(59)         3533.0703     3080.2090   
 3440  51.7942  3394(58)         3526.3296     3078.2827   
 3441  51.8092  3366(58)         3520.9089     3076.3564   
 3442  51.8242  3434(59)         3516.6204     3074.4299   
 3443  51.8392  3448(59)         3513.3201     3072.5037   
 3444  51.8542  3381(58)         3510.6167     3070.5774   
 3445  51.8692  3350(58)         3508.4294     3068.6514   
 3446  51.8842  3417(58)         3506.4268     3066.7251   
 3447  51.8992  3561(60)         3504.2344     3064.7988   
 3448  51.9142  3542(60)         3501.5310     3062.8723   
 3449  51.9292  3606(60)         3498.0439     3060.9460   
 3450  51.9442  3409(58)         3493.3591     3059.0198   
 3451  51.9592  3476(59)         3487.9280     3057.0938   
 3452  51.9742  3454(59)         3481.5608     3055.1675   
 3453  51.9892  3382(58)         3474.4402     3053.2412   
 3454  52.0042  3543(60)         3466.7471     3051.3147   
 3455  52.0192  3462(59)         3459.0703     3049.3884   
 3456  52.0342  3549(60)         3451.4314     3047.4622   
 3457  52.0492  3528(59)         3444.2026     3045.5361   
 3458  52.0642  3554(60)         3437.5754     3043.6099   
 3459  52.0792  3648(60)         3431.6465     3041.6836   
 3460  52.0942  3631(60)         3426.4126     3039.7576   
 3461  52.1092  3420(58)         3421.7239     3037.8308   
 3462  52.1242  3526(59)         3417.5381     3035.9045   
 3463  52.1392  3536(59)         3413.5901     3033.9785   
 3464  52.1542  3544(60)         3409.6438     3032.0522   
 3465  52.1692  3515(59)         3405.3474     3030.1260   
 3466  52.1842  3548(60)         3400.6577     3028.2000   
 3467  52.1992  3579(60)         3395.2493     3026.2732   
 3468  52.2142  3500(59)         3388.9253     3024.3469   
 3469  52.2292  3353(58)         3381.5500     3022.4209   
 3470  52.2442  3390(58)         3373.1196     3020.4946   
 3471  52.2592  3426(59)         3363.7290     3018.5684   
 3472  52.2742  3387(58)         3353.5750     3016.6423   
 3473  52.2892  3331(58)         3342.9216     3014.7156   
 3474  52.3042  3340(58)         3332.0701     3012.7893   
 3475  52.3192  3317(58)         3320.5732     3010.8633   
 3476  52.3342  3297(57)         3310.1248     3008.9370   
 3477  52.3492  3309(58)         3300.1348     3007.0107   
 3478  52.3642  3359(58)         3290.6528     3005.0847   
 3479  52.3792  3341(58)         3281.8083     3003.1580   
 3480  52.3942  3229(57)         3273.6021     3001.2317   
 3481  52.4092  3271(57)         3265.9924     2999.3057   
 3482  52.4242  3295(57)         3259.0105     2997.3794   
 3483  52.4392  3268(57)         3252.6816     2995.4531   
 3484  52.4542  3254(57)         3247.0425     2993.5271   
 3485  52.4692  3230(57)         3242.1396     2991.6008   
 3486  52.4842  3259(57)         3238.0178     2989.6741   
 3487  52.4992  3310(58)         3234.7161     2987.7480   
 3488  52.5142  3281(57)         3232.2549     2985.8218   
 3489  52.5292  3227(57)         3230.7415     2983.8955   
 3490  52.5442  3254(57)         3229.9431     2981.9695   
 3491  52.5592  3179(56)         3229.8933     2980.0432   
 3492  52.5742  3258(57)         3230.5657     2978.1165   
 3493  52.5892  3186(56)         3231.8406     2976.1904   
 3494  52.6042  3306(57)         3233.6060     2974.2642   
 3495  52.6192  3195(57)         3235.7471     2972.3379   
 3496  52.6342  3287(57)         3238.2644     2970.4119   
 3497  52.6492  3220(57)         3240.8728     2968.4856   
 3498  52.6642  3265(57)         3243.3022     2966.5588   
 3499  52.6792  3266(57)         3246.1433     2964.6328   
 3500  52.6942  3326(58)         3249.1809     2962.7065   
 3501  52.7092  3127(56)         3252.3616     2960.7803   
 3502  52.7242  3268(57)         3255.6262     2958.8542   
 3503  52.7392  3249(57)         3258.8884     2956.9280   
 3504  52.7542  3361(58)         3261.9932     2955.0012   
 3505  52.7692  3218(57)         3264.7395     2953.0752   
 3506  52.7842  3278(57)         3266.8899     2951.1489   
 3507  52.7992  3263(57)         3268.2405     2949.2227   
 3508  52.8142  3268(57)         3268.6370     2947.2966   
 3509  52.8292  3232(57)         3268.0017     2945.3704   
 3510  52.8442  3336(58)         3266.3635     2943.4441   
 3511  52.8592  3218(57)         3263.8325     2941.5176   
 3512  52.8742  3258(57)         3260.5325     2939.5913   
 3513  52.8892  3304(57)         3256.7979     2937.6650   
 3514  52.9042  3332(58)         3252.8442     2935.7388   
 3515  52.9192  3292(57)         3248.9507     2933.8127   
 3516  52.9342  3195(57)         3245.3789     2931.8865   
 3517  52.9492  3304(57)         3242.3835     2929.9597   
 3518  52.9642  3227(57)         3240.1980     2928.0337   
 3519  52.9792  3353(58)         3238.9661     2926.1074   
 3520  52.9942  3209(57)         3238.8237     2924.1812   
 3521  53.0092  3259(57)         3239.7456     2922.2551   
 3522  53.0242  3290(57)         3241.9131     2920.3289   
 3523  53.0392  3312(58)         3245.1792     2918.4021   
 3524  53.0542  3187(56)         3249.4280     2916.4761   
 3525  53.0692  3323(58)         3254.4854     2914.5498   
 3526  53.0842  3310(58)         3260.1606     2912.6235   
 3527  53.0992  3401(58)         3266.2053     2910.6975   
 3528  53.1142  3378(58)         3272.3562     2908.7712   
 3529  53.1292  3350(58)         3278.3354     2906.8445   
 3530  53.1442  3375(58)         3283.8530     2904.9185   
 3531  53.1592  3357(58)         3288.6294     2902.9922   
 3532  53.1742  3280(57)         3292.4106     2901.0659   
 3533  53.1892  3294(57)         3295.0037     2899.1399   
 3534  53.2042  3281(57)         3296.3042     2897.2136   
 3535  53.2192  3364(58)         3296.3430     2895.2874   
 3536  53.2342  3361(58)         3295.2725     2893.3608   
 3537  53.2492  3290(57)         3293.3477     2891.4346   
 3538  53.2642  3340(58)         3290.9258     2889.5083   
 3539  53.2792  3275(57)         3288.4048     2887.5823   
 3540  53.2942  3306(57)         3286.1902     2885.6560   
 3541  53.3092  3298(57)         3284.6714     2883.7297   
 3542  53.3242  3333(58)         3284.2031     2881.8032   
 3543  53.3392  3287(57)         3285.0964     2879.8770   
 3544  53.3542  3341(58)         3287.6169     2877.9507   
 3545  53.3692  3421(58)         3291.9780     2876.0247   
 3546  53.3842  3296(57)         3298.3604     2874.0984   
 3547  53.3992  3363(58)         3306.7993     2872.1721   
 3548  53.4142  3473(59)         3317.3516     2870.2456   
 3549  53.4292  3404(58)         3329.8401     2868.3193   
 3550  53.4442  3344(58)         3344.0659     2866.3931   
 3551  53.4592  3387(58)         3359.6104     2864.4670   
 3552  53.4742  3479(59)         3375.9814     2862.5408   
 3553  53.4892  3510(59)         3392.3311     2860.6145   
 3554  53.5042  3526(59)         3407.8896     2858.6880   
 3555  53.5192  3517(59)         3421.6523     2856.7617   
 3556  53.5342  3440(59)         3432.7183     2854.8354   
 3557  53.5492  3424(59)         3440.2183     2852.9094   
 3558  53.5642  3386(58)         3443.6450     2850.9832   
 3559  53.5792  3225(57)         3442.6575     2849.0569   
 3560  53.5942  3370(58)         3436.8621     2847.1309   
 3561  53.6092  3221(57)         3427.6011     2845.2041   
 3562  53.6242  3196(57)         3415.2188     2843.2778   
 3563  53.6392  3244(57)         3400.4893     2841.3518   
 3564  53.6542  3162(56)         3384.5234     2839.4255   
 3565  53.6692  3113(56)         3368.2776     2837.4993   
 3566  53.6842  3157(56)         3352.6563     2835.5732   
 3567  53.6992  3165(56)         3338.2100     2833.6465   
 3568  53.7142  3116(56)         3325.8230     2831.7202   
 3569  53.7292  3211(57)         3315.6775     2829.7942   
 3570  53.7442  3123(56)         3307.9609     2827.8679   
 3571  53.7592  3136(56)         3302.5769     2825.9417   
 3572  53.7742  3088(56)         3299.5801     2824.0156   
 3573  53.7892  3191(56)         3298.5718     2822.0889   
 3574  53.8042  3142(56)         3299.1279     2820.1626   
 3575  53.8192  3108(56)         3300.5220     2818.2366   
 3576  53.8342  3129(56)         3302.2791     2816.3103   
 3577  53.8492  3110(56)         3303.5269     2814.3840   
 3578  53.8642  3064(55)         3303.4944     2812.4580   
 3579  53.8792  3068(55)         3301.4951     2810.5313   
 3580  53.8942  3011(55)         3297.0220     2808.6050   
 3581  53.9092  3058(55)         3289.6755     2806.6790   
 3582  53.9242  3115(56)         3279.7981     2804.7527   
 3583  53.9392  3122(56)         3267.5435     2802.8264   
 3584  53.9542  3169(56)         3253.4631     2800.9004   
 3585  53.9692  3164(56)         3238.1204     2798.9741   
 3586  53.9842  3149(56)         3222.2048     2797.0474   
 3587  53.9992  2972(55)         3206.3328     2795.1213   
 3588  54.0142  2995(55)         3191.0085     2793.1951   
 3589  54.0292  2977(55)         3176.6228     2791.2688   
 3590  54.0442  3076(55)         3163.4468     2789.3428   
 3591  54.0592  3082(56)         3151.6558     2787.4165   
 3592  54.0742  3037(55)         3141.3462     2785.4897   
 3593  54.0892  3085(56)         3132.5601     2783.5637   
 3594  54.1042  3066(55)         3125.3064     2781.6375   
 3595  54.1192  3012(55)         3119.5764     2779.7112   
 3596  54.1342  3087(56)         3115.2065     2777.7852   
 3597  54.1492  3074(55)         3112.4468     2775.8589   
 3598  54.1642  3112(56)         3111.1069     2773.9321   
 3599  54.1792  3031(55)         3111.1101     2772.0061   
 3600  54.1942  3115(56)         3112.3464     2770.0798   
 3601  54.2092  3069(55)         3114.7249     2768.1536   
 3602  54.2242  3010(55)         3117.5522     2766.2275   
 3603  54.2392  3048(55)         3121.3140     2764.3013   
 3604  54.2542  3061(55)         3125.4185     2762.3745   
 3605  54.2692  3093(56)         3129.3379     2760.4485   
 3606  54.2842  3030(55)         3132.7905     2758.5222   
 3607  54.2992  3094(56)         3135.4485     2756.5959   
 3608  54.3142  3066(55)         3137.0586     2754.6699   
 3609  54.3292  3165(56)         3137.4739     2752.7437   
 3610  54.3442  3140(56)         3136.6582     2750.8174   
 3611  54.3592  3049(55)         3134.6772     2748.8909   
 3612  54.3742  3071(55)         3131.6394     2746.9646   
 3613  54.3892  3116(56)         3127.7837     2745.0383   
 3614  54.4042  3195(57)         3123.2556     2743.1123   
 3615  54.4192  3107(56)         3118.2329     2741.1860   
 3616  54.4342  2983(55)         3112.8369     2739.2598   
 3617  54.4492  3041(55)         3107.2512     2737.3333   
 3618  54.4642  3143(56)         3101.4968     2735.4070   
 3619  54.4792  3037(55)         3095.5281     2733.4807   
 3620  54.4942  3122(56)         3089.8823     2731.5547   
 3621  54.5092  3059(55)         3084.4626     2729.6284   
 3622  54.5242  3132(56)         3079.3743     2727.7021   
 3623  54.5392  3096(56)         3074.6860     2725.7754   
 3624  54.5542  3120(56)         3070.4558     2723.8494   
 3625  54.5692  3124(56)         3066.6694     2721.9231   
 3626  54.5842  3136(56)         3063.3040     2719.9968   
 3627  54.5992  3177(56)         3060.2966     2718.0708   
 3628  54.6142  3141(56)         3057.6279     2716.1445   
 3629  54.6292  3097(56)         3055.0627     2714.2178   
 3630  54.6442  3171(56)         3052.5613     2712.2917   
 3631  54.6592  3099(56)         3050.0142     2710.3655   
 3632  54.6742  3145(56)         3047.3181     2708.4392   
 3633  54.6892  3165(56)         3044.3816     2706.5132   
 3634  54.7042  3180(56)         3041.1292     2704.5869   
 3635  54.7192  3081(56)         3037.5085     2702.6606   
 3636  54.7342  3207(57)         3033.5215     2700.7341   
 3637  54.7492  3089(56)         3029.1216     2698.8079   
 3638  54.7642  3133(56)         3024.3811     2696.8816   
 3639  54.7792  3151(56)         3019.3865     2694.9556   
 3640  54.7942  3052(55)         3014.2646     2693.0293   
 3641  54.8092  3094(56)         3009.1787     2691.1030   
 3642  54.8242  3137(56)         3004.3145     2689.1765   
 3643  54.8392  3155(56)         2999.8831     2687.2502   
 3644  54.8542  3100(56)         2996.0415     2685.3240   
 3645  54.8692  3127(56)         2992.9695     2683.3979   
 3646  54.8842  3100(56)         2990.7993     2681.4717   
 3647  54.8992  3122(56)         2989.6255     2679.5454   
 3648  54.9142  3127(56)         2989.3945     2677.6189   
 3649  54.9292  3094(56)         2990.3352     2675.6926   
 3650  54.9442  3133(56)         2992.3152     2673.7664   
 3651  54.9592  3127(56)         2995.0481     2671.8403   
 3652  54.9742  3061(55)         2998.9031     2669.9141   
 3653  54.9892  3049(55)         3003.5334     2667.9878   
 3654  55.0042  3179(56)         3008.7937     2666.0613   
 3655  55.0192  3169(56)         3014.5005     2664.1350   
 3656  55.0342  3065(55)         3020.4346     2662.2087   
 3657  55.0492  3062(55)         3027.7434     2661.6978   
 3658  55.0642  3227(57)         3034.9180     2661.4041   
 3659  55.0792  3176(56)         3041.3586     2661.1104   
 3660  55.0942  2980(55)         3046.7341     2660.8169   
 3661  55.1092  3105(56)         3050.5588     2660.5232   
 3662  55.1242  3032(55)         3052.5579     2660.2295   
 3663  55.1392  3043(55)         3052.5190     2659.9358   
 3664  55.1542  2990(55)         3050.4041     2659.6423   
 3665  55.1692  3013(55)         3046.2849     2659.3486   
 3666  55.1842  3032(55)         3040.4622     2659.0549   
 3667  55.1992  3079(55)         3033.3398     2658.7612   
 3668  55.2142  3153(56)         3025.4001     2658.4678   
 3669  55.2292  3046(55)         3017.1360     2658.1741   
 3670  55.2442  3009(55)         3009.0098     2657.8804   
 3671  55.2592  2991(55)         3001.4204     2657.5869   
 3672  55.2742  3047(55)         2994.6848     2657.2932   
 3673  55.2892  2960(54)         2989.0652     2656.9995   
 3674  55.3042  2969(54)         2984.6655     2656.7061   
 3675  55.3192  3088(56)         2981.6650     2656.4124   
 3676  55.3342  3027(55)         2979.9656     2656.1187   
 3677  55.3492  3048(55)         2979.6143     2655.8252   
 3678  55.3642  3012(55)         2980.5508     2655.5315   
 3679  55.3792  2985(55)         2982.6768     2655.2378   
 3680  55.3942  3053(55)         2985.8577     2654.9441   
 3681  55.4092  2967(54)         2989.9231     2654.6506   
 3682  55.4242  2992(55)         2994.6646     2654.3569   
 3683  55.4392  3063(55)         2999.8486     2654.0632   
 3684  55.4542  2937(54)         3005.2256     2653.7698   
 3685  55.4692  2982(55)         3010.5464     2653.4761   
 3686  55.4842  3011(55)         3015.5869     2653.1824   
 3687  55.4992  2945(54)         3020.1641     2652.8887   
 3688  55.5142  3037(55)         3024.2512     2652.5952   
 3689  55.5292  2990(55)         3027.6226     2652.3015   
 3690  55.5442  3023(55)         3030.3889     2652.0078   
 3691  55.5592  2972(55)         3032.6301     2651.7144   
 3692  55.5742  3045(55)         3034.2498     2651.4207   
 3693  55.5892  3068(55)         3035.7529     2651.1270   
 3694  55.6042  3018(55)         3037.1333     2650.8335   
 3695  55.6192  3109(56)         3038.4023     2650.5398   
 3696  55.6342  3132(56)         3039.5476     2650.2461   
 3697  55.6492  3040(55)         3040.5234     2649.9526   
 3698  55.6642  3026(55)         3041.0381     2649.6589   
 3699  55.6792  3084(56)         3040.8975     2649.3652   
 3700  55.6942  3126(56)         3039.8262     2649.0715   
 3701  55.7092  3042(55)         3037.5618     2648.7781   
 3702  55.7242  2975(55)         3033.9270     2648.4844   
 3703  55.7392  3030(55)         3028.8289     2648.1907   
 3704  55.7542  3063(55)         3022.3066     2647.8970   
 3705  55.7692  3013(55)         3014.5173     2647.6035   
 3706  55.7842  2999(55)         3005.7383     2647.3098   
 3707  55.7992  3029(55)         2996.2246     2647.0161   
 3708  55.8142  3027(55)         2986.4009     2646.7227   
 3709  55.8292  2981(55)         2976.5425     2646.4290   
 3710  55.8442  2984(55)         2966.9121     2646.1353   
 3711  55.8592  2959(54)         2957.6990     2645.8416   
 3712  55.8742  3026(55)         2949.0010     2645.5481   
 3713  55.8892  3058(55)         2940.8547     2645.2544   
 3714  55.9042  3049(55)         2933.2410     2644.9609   
 3715  55.9192  2983(55)         2926.0933     2644.6672   
 3716  55.9342  3046(55)         2919.3435     2644.3735   
 3717  55.9492  3046(55)         2912.9126     2644.0798   
 3718  55.9642  3021(55)         2906.9209     2643.7864   
 3719  55.9792  2975(55)         2901.0671     2643.4927   
 3720  55.9942  2954(54)         2895.4993     2643.1990   
 3721  56.0092  3029(55)         2890.2720     2642.9055   
 3722  56.0242  3006(55)         2885.3923     2642.6118   
 3723  56.0392  2949(54)         2880.9297     2642.3181   
 3724  56.0542  3011(55)         2876.9331     2642.0244   
 3725  56.0692  3059(55)         2873.4412     2641.7310   
 3726  56.0842  3053(55)         2870.4856     2641.4373   
 3727  56.0992  2963(54)         2868.0854     2641.1436   
 3728  56.1142  2970(54)         2866.2578     2640.8501   
 3729  56.1292  2912(54)         2865.0085     2640.5564   
 3730  56.1442  2914(54)         2864.3350     2640.2627   
 3731  56.1592  2993(55)         2864.2253     2639.9690   
 3732  56.1742  3009(55)         2864.7148     2639.6755   
 3733  56.1892  3013(55)         2865.5913     2639.3818   
 3734  56.2042  2947(54)         2866.8545     2639.0881   
 3735  56.2192  3013(55)         2868.3713     2638.7947   
 3736  56.2342  3017(55)         2870.0669     2638.5010   
 3737  56.2492  2990(55)         2871.9392     2638.2073   
 3738  56.2642  2992(55)         2873.5200     2637.9138   
 3739  56.2792  3054(55)         2874.8496     2637.6201   
 3740  56.2942  3086(56)         2875.8391     2637.3264   
 3741  56.3092  2905(54)         2876.4480     2637.0330   
 3742  56.3242  2892(54)         2876.6914     2636.7393   
 3743  56.3392  2976(55)         2876.6389     2636.4456   
 3744  56.3542  2941(54)         2876.0576     2636.1519   
 3745  56.3692  2974(55)         2875.8486     2635.8584   
 3746  56.3842  2899(54)         2875.6829     2635.5647   
 3747  56.3992  2877(54)         2875.7703     2635.2710   
 3748  56.4142  2992(55)         2876.3340     2634.9773   
 3749  56.4292  2894(54)         2877.2832     2634.6838   
 3750  56.4442  3007(55)         2878.8203     2634.3901   
 3751  56.4592  3064(55)         2880.9236     2634.0964   
 3752  56.4742  3032(55)         2883.6445     2633.8030   
 3753  56.4892  3012(55)         2886.9744     2633.5093   
 3754  56.5042  3009(55)         2890.8840     2633.2156   
 3755  56.5192  2993(55)         2895.3237     2632.9221   
 3756  56.5342  3046(55)         2900.2339     2632.6284   
 3757  56.5492  3009(55)         2905.5532     2632.3347   
 3758  56.5642  2937(54)         2911.2285     2632.0413   
 3759  56.5792  2953(54)         2917.2549     2631.7476   
 3760  56.5942  2970(54)         2923.5522     2631.4539   
 3761  56.6092  3001(55)         2930.2180     2631.1602   
 3762  56.6242  2952(54)         2936.7791     2630.8667   
 3763  56.6392  2985(55)         2944.0449     2630.5730   
 3764  56.6542  2999(55)         2951.6323     2630.2793   
 3765  56.6692  3088(56)         2959.5017     2629.9858   
 3766  56.6842  3020(55)         2967.5449     2629.6921   
 3767  56.6992  2985(55)         2975.6101     2629.3984   
 3768  56.7142  2929(54)         2983.5354     2629.1047   
 3769  56.7292  3026(55)         2991.0571     2628.8113   
 3770  56.7442  2947(54)         2997.9058     2628.5176   
 3771  56.7592  2933(54)         3003.8440     2628.2239   
 3772  56.7742  2915(54)         3008.5430     2627.9304   
 3773  56.7892  3031(55)         3011.7722     2627.6367   
 3774  56.8042  2976(55)         3013.3838     2627.3430   
 3775  56.8192  2891(54)         3013.1970     2627.0493   
 3776  56.8342  2980(55)         3011.4475     2626.7559   
 3777  56.8492  2945(54)         3008.1736     2626.4622   
 3778  56.8642  2959(54)         3003.6248     2626.1687   
 3779  56.8792  2895(54)         2997.8264     2625.8750   
 3780  56.8942  2981(55)         2991.7778     2625.5813   
 3781  56.9092  2950(54)         2985.5801     2625.2876   
 3782  56.9242  3031(55)         2979.6284     2624.9941   
 3783  56.9392  2950(54)         2974.2505     2624.7004   
 3784  56.9542  2923(54)         2969.7507     2624.4067   
 3785  56.9692  2933(54)         2966.3599     2624.1133   
 3786  56.9842  2837(53)         2964.2432     2623.8196   
 3787  56.9992  2934(54)         2963.4697     2623.5259   
 3788  57.0142  2847(53)         2964.1638     2623.2322   
 3789  57.0292  2998(55)         2966.2300     2622.9387   
 3790  57.0442  2974(55)         2969.6084     2622.6450   
 3791  57.0592  3027(55)         2974.1445     2622.3513   
 3792  57.0742  2893(54)         2979.6235     2622.0576   
 3793  57.0892  2966(54)         2985.7578     2621.7642   
 3794  57.1042  3045(55)         2992.2041     2621.4705   
 3795  57.1192  2960(54)         2998.5720     2621.1768   
 3796  57.1342  2945(54)         3004.4502     2620.8833   
 3797  57.1492  2957(54)         3009.4368     2620.5896   
 3798  57.1642  2909(54)         3013.1455     2620.2959   
 3799  57.1792  2920(54)         3015.4060     2620.0024   
 3800  57.1942  2972(55)         3016.0703     2619.7087   
 3801  57.2092  2925(54)         3015.1484     2619.4150   
 3802  57.2242  2865(54)         3012.8215     2619.1216   
 3803  57.2392  2903(54)         3009.4268     2618.8279   
 3804  57.2542  2788(53)         3005.3699     2618.5342   
 3805  57.2692  2912(54)         3001.0554     2618.2405   
 3806  57.2842  2870(54)         2996.9429     2617.9470   
 3807  57.2992  2890(54)         2993.4321     2617.6533   
 3808  57.3142  2905(54)         2990.7314     2617.3596   
 3809  57.3292  2934(54)         2989.3386     2617.0662   
 3810  57.3442  2919(54)         2989.2849     2616.7725   
 3811  57.3592  2968(54)         2990.6211     2616.4788   
 3812  57.3742  2863(54)         2993.2112     2616.1851   
 3813  57.3892  2901(54)         2997.0952     2615.8916   
 3814  57.4042  2812(53)         3001.9341     2615.5979   
 3815  57.4192  2968(54)         3007.3816     2615.3042   
 3816  57.4342  2914(54)         3013.0530     2615.0107   
 3817  57.4492  2950(54)         3018.4319     2614.7170   
 3818  57.4642  2854(53)         3023.0498     2614.4233   
 3819  57.4792  2925(54)         3026.4539     2614.1299   
 3820  57.4942  2810(53)         3028.2883     2613.8362   
 3821  57.5092  2814(53)         3028.3264     2613.5425   
 3822  57.5242  2824(53)         3026.4946     2613.2490   
 3823  57.5392  2930(54)         3022.8462     2612.9553   
 3824  57.5542  2844(53)         3017.6958     2612.6616   
 3825  57.5692  2917(54)         3011.3298     2612.3679   
 3826  57.5842  2920(54)         3004.0889     2612.0745   
 3827  57.5992  3021(55)         2996.3911     2611.7808   
 3828  57.6142  2889(54)         2988.5540     2611.4871   
 3829  57.6292  2924(54)         2980.7439     2611.1934   
 3830  57.6442  2917(54)         2973.1382     2610.8999   
 3831  57.6592  2959(54)         2965.8052     2610.6062   
 3832  57.6742  2893(54)         2958.5408     2610.3125   
 3833  57.6892  2883(54)         2951.5703     2610.0190   
 3834  57.7042  2838(53)         2944.6445     2609.7253   
 3835  57.7192  2855(53)         2937.6599     2609.4316   
 3836  57.7342  2894(54)         2930.5359     2609.1379   
 3837  57.7492  2750(52)         2923.2363     2608.8445   
 3838  57.7642  2782(53)         2915.7615     2608.5508   
 3839  57.7792  2797(53)         2908.1519     2608.2573   
 3840  57.7942  2806(53)         2900.4714     2607.9636   
 3841  57.8092  2796(53)         2892.7976     2607.6699   
 3842  57.8242  2880(54)         2885.2075     2607.3762   
 3843  57.8392  2880(54)         2877.7810     2607.0828   
 3844  57.8542  2821(53)         2870.5825     2606.7891   
 3845  57.8692  2891(54)         2863.6816     2606.4954   
 3846  57.8842  2827(53)         2857.1333     2606.2019   
 3847  57.8992  2959(54)         2850.9861     2605.9082   
 3848  57.9142  2922(54)         2845.2788     2605.6145   
 3849  57.9292  2807(53)         2840.0400     2605.3208   
 3850  57.9442  2938(54)         2835.2793     2605.0273   
 3851  57.9592  2777(53)         2831.0305     2604.7336   
 3852  57.9742  2654(52)         2827.2402     2604.4399   
 3853  57.9892  2774(53)         2823.8235     2604.1465   
 3854  58.0042  2790(53)         2820.7695     2603.8528   
 3855  58.0192  2753(52)         2818.0393     2603.5591   
 3856  58.0342  2895(54)         2815.5835     2603.2654   
 3857  58.0492  2795(53)         2813.4473     2602.9719   
 3858  58.0642  2860(53)         2811.4099     2602.6782   
 3859  58.0792  2771(53)         2809.5325     2602.3845   
 3860  58.0942  2912(54)         2807.7966     2602.0911   
 3861  58.1092  2883(54)         2806.1970     2601.7974   
 3862  58.1242  2937(54)         2804.7449     2601.5037   
 3863  58.1392  2819(53)         2803.4014     2601.2102   
 3864  58.1542  2834(53)         2802.3931     2600.9165   
 3865  58.1692  2800(53)         2801.5569     2600.6228   
 3866  58.1842  2734(52)         2800.9941     2600.3293   
 3867  58.1992  2790(53)         2800.7234     2600.0356   
 3868  58.2142  2844(53)         2800.7412     2599.7419   
 3869  58.2292  2769(53)         2801.0706     2599.4482   
 3870  58.2442  2848(53)         2801.5527     2599.1548   
 3871  58.2592  2780(53)         2802.1228     2598.8611   
 3872  58.2742  2751(52)         2802.6758     2598.5674   
 3873  58.2892  2787(53)         2803.0835     2598.2737   
 3874  58.3042  2811(53)         2803.2205     2597.9802   
 3875  58.3192  2864(54)         2802.8679     2597.6865   
 3876  58.3342  2809(53)         2802.2075     2597.3928   
 3877  58.3492  2825(53)         2801.0686     2597.0994   
 3878  58.3642  2910(54)         2799.4976     2596.8057   
 3879  58.3792  2810(53)         2797.5977     2596.5120   
 3880  58.3942  2798(53)         2795.3982     2596.2185   
 3881  58.4092  2838(53)         2793.1436     2595.9248   
 3882  58.4242  2738(52)         2790.9656     2595.6311   
 3883  58.4392  2754(52)         2788.8904     2595.3376   
 3884  58.4542  2801(53)         2787.1077     2595.0439   
 3885  58.4692  2798(53)         2785.6724     2594.7502   
 3886  58.4842  2857(53)         2784.6333     2594.4565   
 3887  58.4992  2852(53)         2784.0339     2594.1631   
 3888  58.5142  2863(54)         2783.8311     2593.8694   
 3889  58.5292  2867(54)         2784.0298     2593.5757   
 3890  58.5442  2872(54)         2784.6089     2593.2822   
 3891  58.5592  2871(54)         2785.4980     2592.9885   
 3892  58.5742  2843(53)         2786.6763     2592.6948   
 3893  58.5892  2823(53)         2788.0840     2592.4011   
 3894  58.6042  2748(52)         2789.6755     2592.1077   
 3895  58.6192  2740(52)         2791.3928     2591.8140   
 3896  58.6342  2811(53)         2793.1790     2591.5203   
 3897  58.6492  2784(53)         2794.9512     2591.2268   
 3898  58.6642  2884(54)         2796.5867     2590.9331   
 3899  58.6792  2887(54)         2798.1372     2590.6394   
 3900  58.6942  2832(53)         2799.4924     2590.3457   
 3901  58.7092  2836(53)         2800.6260     2590.0522   
 3902  58.7242  2790(53)         2801.5361     2589.7585   
 3903  58.7392  2788(53)         2802.2539     2589.4651   
 3904  58.7542  2851(53)         2802.8359     2589.1714   
 3905  58.7692  2901(54)         2803.1831     2588.8777   
 3906  58.7842  2885(54)         2803.7302     2588.5840   
 3907  58.7992  2858(53)         2804.3826     2588.2905   
 3908  58.8142  2872(54)         2805.2124     2587.9968   
 3909  58.8292  2964(54)         2806.2410     2587.7031   
 3910  58.8442  2850(53)         2807.4802     2587.4097   
 3911  58.8592  2804(53)         2808.8733     2587.1160   
 3912  58.8742  2811(53)         2810.4082     2586.8223   
 3913  58.8892  2847(53)         2811.9285     2586.5286   
 3914  58.9042  2854(53)         2813.3291     2586.2351   
 3915  58.9192  2871(54)         2814.4666     2585.9414   
 3916  58.9342  2840(53)         2815.2512     2585.6477   
 3917  58.9492  2953(54)         2815.5647     2585.3540   
 3918  58.9642  2815(53)         2815.3271     2585.0605   
 3919  58.9792  2722(52)         2814.4814     2584.7668   
 3920  58.9942  2844(53)         2812.9915     2584.4731   
 3921  59.0092  2781(53)         2810.8389     2584.1797   
 3922  59.0242  2798(53)         2808.0125     2583.8860   
 3923  59.0392  2800(53)         2804.5237     2583.5923   
 3924  59.0542  2746(52)         2800.4375     2583.2988   
 3925  59.0692  2791(53)         2795.7231     2583.0051   
 3926  59.0842  2765(53)         2790.4988     2582.7114   
 3927  59.0992  2855(53)         2784.8647     2582.4180   
 3928  59.1142  2888(54)         2778.9358     2582.1243   
 3929  59.1292  2793(53)         2772.8359     2581.8306   
 3930  59.1442  2763(53)         2766.6917     2581.5369   
 3931  59.1592  2841(53)         2760.4663     2581.2434   
 3932  59.1742  2760(53)         2754.5500     2580.9497   
 3933  59.1892  2729(52)         2748.8711     2580.6560   
 3934  59.2042  2808(53)         2743.4172     2580.3625   
 3935  59.2192  2756(52)         2738.0935     2580.0688   
 3936  59.2342  2717(52)         2733.3950     2579.7751   
 3937  59.2492  2727(52)         2729.0598     2579.4814   
 3938  59.2642  2720(52)         2725.0674     2579.1880   
 3939  59.2792  2788(53)         2721.4150     2578.8943   
 3940  59.2942  2714(52)         2718.0833     2578.6006   
 3941  59.3092  2750(52)         2715.0471     2578.3071   
 3942  59.3242  2819(53)         2712.2820     2578.0134   
 3943  59.3392  2854(53)         2709.7495     2577.7197   
 3944  59.3542  2864(54)         2707.4224     2577.4263   
 3945  59.3692  2749(52)         2705.2690     2577.1326   
 3946  59.3842  2798(53)         2703.2725     2576.8389   
 3947  59.3992  2745(52)         2701.3821     2576.5454   
 3948  59.4142  2728(52)         2699.6138     2576.2517   
 3949  59.4292  2730(52)         2697.8987     2575.9580   
 3950  59.4442  2800(53)         2696.2949     2575.6643   
 3951  59.4592  2692(52)         2694.7507     2575.3708   
 3952  59.4742  2750(52)         2693.2495     2575.0771   
 3953  59.4892  2665(52)         2691.8330     2574.7834   
 3954  59.5042  2803(53)         2690.5210     2574.4897   
 3955  59.5192  2732(52)         2689.3318     2574.1963   
 3956  59.5342  2687(52)         2688.2839     2573.9026   
 3957  59.5492  2838(53)         2687.3997     2573.6089   
 3958  59.5642  2800(53)         2686.3486     2573.3154   
 3959  59.5792  2726(52)         2685.8398     2573.0217   
 3960  59.5942  2713(52)         2685.5369     2572.7280   
 3961  59.6092  2782(53)         2685.4490     2572.4343   
 3962  59.6242  2829(53)         2685.5833     2572.1409   
 3963  59.6392  2759(53)         2685.9443     2571.8472   
 3964  59.6542  2689(52)         2686.5483     2571.5535   
 3965  59.6692  2688(52)         2687.3752     2571.2600   
 3966  59.6842  2723(52)         2688.4397     2570.9663   
 3967  59.6992  2680(52)         2689.7664     2570.6726   
 3968  59.7142  2662(52)         2691.3186     2570.3792   
 3969  59.7292  2749(52)         2693.1223     2570.0854   
 3970  59.7442  2770(53)         2695.1873     2569.7917   
 3971  59.7592  2732(52)         2697.5188     2569.4983   
 3972  59.7742  2754(52)         2700.1187     2569.2046   
 3973  59.7892  2769(53)         2703.0198     2568.9109   
 3974  59.8042  2692(52)         2706.2202     2568.6172   
 3975  59.8192  2721(52)         2709.7263     2568.3237   
 3976  59.8342  2728(52)         2713.5352     2568.0300   
 3977  59.8492  2662(52)         2717.6526     2567.7363   
 3978  59.8642  2644(51)         2722.0317     2567.4429   
 3979  59.8792  2581(51)         2726.6680     2567.1492   
 3980  59.8942  2674(52)         2731.4658     2566.8555   
 3981  59.9092  2780(53)         2736.3804     2566.5618   
 3982  59.9242  2771(53)         2741.3359     2566.2683   
 3983  59.9392  2793(53)         2746.2544     2565.9746   
 3984  59.9542  2804(53)         2751.0330     2565.6809   
 3985  59.9692  2791(53)         2755.5935     2565.3875   
 3986  59.9842  2736(52)         2759.8608     2565.0938   
 3987  59.9992  2677(52)         2763.7720     2564.8000   
 3988  60.0142  2704(52)         2767.2656     2564.5066   
 3989  60.0292  2686(52)         2770.3047     2564.2129   
 3990  60.0442  2624(51)         2772.6963     2563.9192   
 3991  60.0592  2731(52)         2774.7236     2563.5349   
 3992  60.0742  2729(52)         2775.8982     2562.7876   
 3993  60.0892  2722(52)         2776.6399     2562.0403   
 3994  60.1042  2732(52)         2776.9814     2561.2930   
 3995  60.1192  2701(52)         2776.9683     2560.5457   
 3996  60.1342  2805(53)         2776.6238     2559.7986   
 3997  60.1492  2816(53)         2775.9595     2559.0513   
 3998  60.1642  2705(52)         2774.9656     2558.3037   
 3999  60.1792  2808(53)         2773.6252     2557.5566   
 4000  60.1942  2799(53)         2771.8364     2556.8093   
 4001  60.2092  2800(53)         2769.6936     2556.0620   
 4002  60.2242  2788(53)         2767.1086     2555.3149   
 4003  60.2392  2744(52)         2764.0349     2554.5676   
 4004  60.2542  2695(52)         2760.5771     2553.8201   
 4005  60.2692  2689(52)         2756.7461     2553.0730   
 4006  60.2842  2654(52)         2752.6104     2552.3257   
 4007  60.2992  2675(52)         2748.2612     2551.5784   
 4008  60.3142  2624(51)         2743.7993     2550.8311   
 4009  60.3292  2679(52)         2739.3154     2550.0840   
 4010  60.3442  2737(52)         2734.9019     2549.3367   
 4011  60.3592  2773(53)         2730.7742     2548.5891   
 4012  60.3742  2794(53)         2726.7390     2547.8420   
 4013  60.3892  2717(52)         2722.9407     2547.0947   
 4014  60.4042  2712(52)         2719.3730     2546.3474   
 4015  60.4192  2717(52)         2716.1262     2545.6003   
 4016  60.4342  2731(52)         2713.1694     2544.8530   
 4017  60.4492  2744(52)         2710.4993     2544.1055   
 4018  60.4642  2684(52)         2708.1062     2543.3584   
 4019  60.4792  2617(51)         2705.9197     2542.6111   
 4020  60.4942  2644(51)         2704.0510     2541.8638   
 4021  60.5092  2690(52)         2702.4258     2541.1165   
 4022  60.5242  2594(51)         2701.0530     2540.3694   
 4023  60.5392  2655(52)         2699.8472     2539.6218   
 4024  60.5542  2650(51)         2698.8372     2538.8745   
 4025  60.5692  2753(52)         2697.9109     2538.1274   
 4026  60.5842  2741(52)         2697.1846     2537.3801   
 4027  60.5992  2752(52)         2696.5642     2536.6328   
 4028  60.6142  2667(52)         2696.0354     2535.8855   
 4029  60.6292  2608(51)         2695.5955     2535.1382   
 4030  60.6442  2707(52)         2695.2549     2534.3909   
 4031  60.6592  2679(52)         2695.0378     2533.6436   
 4032  60.6742  2721(52)         2694.9773     2532.8965   
 4033  60.6892  2735(52)         2695.1208     2532.1492   
 4034  60.7042  2684(52)         2695.5149     2531.4019   
 4035  60.7192  2775(53)         2696.1934     2530.6548   
 4036  60.7342  2749(52)         2697.1943     2529.9072   
 4037  60.7492  2709(52)         2698.5405     2529.1599   
 4038  60.7642  2578(51)         2700.2424     2528.4128   
 4039  60.7792  2733(52)         2702.2844     2527.6655   
 4040  60.7942  2701(52)         2704.6396     2526.9182   
 4041  60.8092  2720(52)         2707.2288     2526.1709   
 4042  60.8242  2745(52)         2710.0408     2525.4236   
 4043  60.8392  2722(52)         2712.9531     2524.6763   
 4044  60.8542  2734(52)         2715.8696     2523.9290   
 4045  60.8692  2664(52)         2718.6445     2523.1819   
 4046  60.8842  2649(51)         2721.1238     2522.4346   
 4047  60.8992  2718(52)         2723.2478     2521.6873   
 4048  60.9142  2750(52)         2724.8633     2520.9399   
 4049  60.9292  2748(52)         2725.8718     2520.1926   
 4050  60.9442  2770(53)         2726.2085     2519.4453   
 4051  60.9592  2712(52)         2725.8413     2518.6982   
 4052  60.9742  2768(53)         2724.8035     2517.9509   
 4053  60.9892  2790(53)         2722.8833     2517.2036   
 4054  61.0042  2677(52)         2720.7070     2516.4563   
 4055  61.0192  2703(52)         2718.1370     2515.7090   
 4056  61.0342  2765(53)         2715.3125     2514.9617   
 4057  61.0492  2720(52)         2712.3738     2514.2144   
 4058  61.0642  2721(52)         2709.4487     2513.4673   
 4059  61.0792  2736(52)         2706.6416     2512.7200   
 4060  61.0942  2749(52)         2704.0237     2511.9727   
 4061  61.1092  2748(52)         2701.6497     2511.2253   
 4062  61.1242  2637(51)         2699.5291     2510.4780   
 4063  61.1392  2696(52)         2697.6492     2509.7307   
 4064  61.1542  2723(52)         2695.9783     2508.9836   
 4065  61.1692  2737(52)         2694.4790     2508.2363   
 4066  61.1842  2762(53)         2693.0925     2507.4890   
 4067  61.1992  2784(53)         2691.7883     2506.7417   
 4068  61.2142  2773(53)         2690.5237     2505.9944   
 4069  61.2292  2753(52)         2689.2898     2505.2471   
 4070  61.2442  2664(52)         2688.1157     2504.4998   
 4071  61.2592  2778(53)         2686.9165     2503.7527   
 4072  61.2742  2689(52)         2685.7510     2503.0054   
 4073  61.2892  2765(53)         2684.6228     2502.2578   
 4074  61.3042  2671(52)         2683.5330     2501.5107   
 4075  61.3192  2620(51)         2682.4695     2500.7634   
 4076  61.3342  2747(52)         2681.4468     2500.0161   
 4077  61.3492  2814(53)         2680.3586     2499.2688   
 4078  61.3642  2765(53)         2679.2014     2498.5217   
 4079  61.3792  2703(52)         2677.9321     2497.7742   
 4080  61.3942  2720(52)         2676.4414     2497.0269   
 4081  61.4092  2709(52)         2674.8496     2496.2798   
 4082  61.4242  2738(52)         2673.0701     2495.5325   
 4083  61.4392  2600(51)         2671.1113     2494.7852   
 4084  61.4542  2688(52)         2668.9836     2494.0381   
 4085  61.4692  2678(52)         2666.7192     2493.2908   
 4086  61.4842  2727(52)         2664.2637     2492.5432   
 4087  61.4992  2669(52)         2661.8289     2491.7961   
 4088  61.5142  2674(52)         2659.3562     2491.0488   
 4089  61.5292  2733(52)         2656.8713     2490.3015   
 4090  61.5442  2719(52)         2654.3950     2489.5542   
 4091  61.5592  2601(51)         2651.9446     2488.8071   
 4092  61.5742  2704(52)         2649.5349     2488.0596   
 4093  61.5892  2673(52)         2647.1833     2487.3123   
 4094  61.6042  2722(52)         2644.9060     2486.5652   
 4095  61.6192  2716(52)         2642.7205     2485.8179   
 4096  61.6342  2615(51)         2640.5273     2485.0706   
 4097  61.6492  2643(51)         2638.5840     2484.3235   
 4098  61.6642  2626(51)         2636.7903     2483.5759   
 4099  61.6792  2663(52)         2635.1687     2482.8286   
 4100  61.6942  2588(51)         2633.5977     2482.0815   
 4101  61.7092  2593(51)         2632.3877     2481.3342   
 4102  61.7242  2629(51)         2631.4224     2480.5869   
 4103  61.7392  2712(52)         2630.7263     2479.8396   
 4104  61.7542  2614(51)         2630.3254     2479.0923   
 4105  61.7692  2661(52)         2630.2432     2478.3450   
 4106  61.7842  2578(51)         2630.5059     2477.5977   
 4107  61.7992  2626(51)         2631.1147     2476.8506   
 4108  61.8142  2641(51)         2632.0825     2476.1033   
 4109  61.8292  2631(51)         2633.4072     2475.3560   
 4110  61.8442  2668(52)         2635.0820     2474.6086   
 4111  61.8592  2669(52)         2637.0693     2473.8613   
 4112  61.8742  2666(52)         2639.3401     2473.1140   
 4113  61.8892  2744(52)         2641.8335     2472.3667   
 4114  61.9042  2651(51)         2644.4900     2471.6196   
 4115  61.9192  2669(52)         2647.1843     2470.8723   
 4116  61.9342  2768(53)         2649.9358     2470.1250   
 4117  61.9492  2683(52)         2652.6272     2469.3777   
 4118  61.9642  2711(52)         2655.2407     2468.6304   
 4119  61.9792  2719(52)         2657.5403     2467.8831   
 4120  61.9942  2735(52)         2659.5652     2467.1360   
 4121  62.0092  2663(52)         2661.2827     2466.3887   
 4122  62.0242  2677(52)         2662.6826     2465.6414   
 4123  62.0392  2693(52)         2663.7764     2464.8940   
 4124  62.0542  2607(51)         2664.5981     2464.1467   
 4125  62.0692  2583(51)         2665.1841     2463.3994   
 4126  62.0842  2714(52)         2665.5747     2462.6521   
 4127  62.0992  2653(52)         2665.8445     2461.9050   
 4128  62.1142  2534(50)         2666.0583     2461.1577   
 4129  62.1292  2536(50)         2666.1797     2460.4102   
 4130  62.1442  2652(51)         2666.2529     2459.6631   
 4131  62.1592  2577(51)         2666.2715     2458.9158   
 4132  62.1742  2622(51)         2666.2151     2458.1685   
 4133  62.1892  2630(51)         2666.0552     2457.4214   
 4134  62.2042  2622(51)         2665.7632     2456.6741   
 4135  62.2192  2667(52)         2665.3171     2455.9268   
 4136  62.2342  2559(51)         2664.7205     2455.1794   
 4137  62.2492  2608(51)         2663.9805     2454.4321   
 4138  62.2642  2687(52)         2663.1428     2453.6848   
 4139  62.2792  2766(53)         2662.2583     2452.9375   
 4140  62.2942  2743(52)         2661.3923     2452.1904   
 4141  62.3092  2723(52)         2660.6130     2451.4431   
 4142  62.3242  2633(51)         2659.9070     2450.6956   
 4143  62.3392  2607(51)         2659.4607     2449.9485   
 4144  62.3542  2662(52)         2659.2219     2449.2012   
 4145  62.3692  2628(51)         2659.1921     2448.4539   
 4146  62.3842  2637(51)         2659.3450     2447.7065   
 4147  62.3992  2585(51)         2659.6333     2446.9595   
 4148  62.4142  2669(52)         2659.9941     2446.2119   
 4149  62.4292  2728(52)         2660.3586     2445.4648   
 4150  62.4442  2705(52)         2660.6707     2444.7175   
 4151  62.4592  2680(52)         2660.8494     2443.9702   
 4152  62.4742  2651(51)         2660.8545     2443.2229   
 4153  62.4892  2630(51)         2660.7163     2442.4758   
 4154  62.5042  2614(51)         2660.3787     2441.7283   
 4155  62.5192  2721(52)         2659.8928     2440.9810   
 4156  62.5342  2759(53)         2659.2947     2440.2339   
 4157  62.5492  2725(52)         2658.6260     2439.4866   
 4158  62.5642  2708(52)         2657.9209     2438.7393   
 4159  62.5792  2726(52)         2657.2124     2437.9919   
 4160  62.5942  2756(52)         2656.5222     2437.2449   
 4161  62.6092  2744(52)         2655.8638     2436.4973   
 4162  62.6242  2706(52)         2655.2485     2435.7500   
 4163  62.6392  2670(52)         2654.6169     2435.0029   
 4164  62.6542  2690(52)         2654.1140     2434.2556   
 4165  62.6692  2714(52)         2653.6895     2433.5083   
 4166  62.6842  2728(52)         2653.3667     2432.7612   
 4167  62.6992  2714(52)         2653.1738     2432.0137   
 4168  62.7142  2686(52)         2653.1423     2431.2664   
 4169  62.7292  2727(52)         2653.3042     2430.5193   
 4170  62.7442  2654(52)         2653.6892     2429.7720   
 4171  62.7592  2682(52)         2654.3264     2429.0247   
 4172  62.7742  2722(52)         2655.2422     2428.2773   
 4173  62.7892  2668(52)         2656.4377     2427.5300   
 4174  62.8042  2635(51)         2657.9788     2426.7827   
 4175  62.8192  2618(51)         2659.8464     2426.0354   
 4176  62.8342  2619(51)         2662.0303     2425.2883   
 4177  62.8492  2605(51)         2664.6172     2424.5410   
 4178  62.8642  2700(52)         2667.5161     2423.7937   
 4179  62.8792  2666(52)         2670.7441     2423.0464   
 4180  62.8942  2631(51)         2674.1816     2422.2991   
 4181  62.9092  2675(52)         2677.8506     2421.5518   
 4182  62.9242  2711(52)         2681.6128     2420.8047   
 4183  62.9392  2730(52)         2685.1902     2420.0574   
 4184  62.9542  2705(52)         2688.7991     2419.3101   
 4185  62.9692  2652(51)         2692.1636     2418.5627   
 4186  62.9842  2635(51)         2695.1755     2417.8154   
 4187  62.9992  2579(51)         2697.7834     2417.0681   
 4188  63.0142  2582(51)         2699.8838     2416.3208   
 4189  63.0292  2678(52)         2701.5229     2415.5737   
 4190  63.0442  2681(52)         2702.7446     2414.8264   
 4191  63.0592  2614(51)         2703.6309     2414.0791   
 4192  63.0742  2633(51)         2704.3086     2413.3318   
 4193  63.0892  2688(52)         2704.9199     2412.5845   
 4194  63.1042  2686(52)         2705.6138     2411.8372   
 4195  63.1192  2652(51)         2706.5430     2411.0898   
 4196  63.1342  2618(51)         2707.8013     2410.3428   
 4197  63.1492  2532(50)         2709.4905     2409.5955   
 4198  63.1642  2534(50)         2711.6631     2408.8479   
 4199  63.1792  2688(52)         2714.3313     2408.1008   
 4200  63.1942  2701(52)         2717.4675     2407.3535   
 4201  63.2092  2559(51)         2721.0088     2406.6062   
 4202  63.2242  2645(51)         2724.8604     2405.8591   
 4203  63.2392  2652(51)         2728.9192     2405.1118   
 4204  63.2542  2675(52)         2733.0212     2404.3643   
 4205  63.2692  2676(52)         2737.0396     2403.6172   
 4206  63.2842  2592(51)         2740.8347     2402.8699   
 4207  63.2992  2650(51)         2744.2368     2402.1226   
 4208  63.3142  2617(51)         2747.2119     2401.3752   
 4209  63.3292  2640(51)         2749.6401     2400.6282   
 4210  63.3442  2593(51)         2751.2039     2399.8809   
 4211  63.3592  2602(51)         2752.3474     2399.1333   
 4212  63.3742  2587(51)         2752.8557     2398.3862   
 4213  63.3892  2588(51)         2752.7175     2397.6389   
 4214  63.4042  2611(51)         2751.9990     2396.8916   
 4215  63.4192  2656(52)         2750.7576     2396.1445   
 4216  63.4342  2675(52)         2749.0496     2395.3972   
 4217  63.4492  2658(52)         2746.9209     2394.6497   
 4218  63.4642  2647(51)         2744.4050     2393.9026   
 4219  63.4792  2620(51)         2741.5173     2393.1553   
 4220  63.4942  2596(51)         2738.2571     2392.4080   
 4221  63.5092  2584(51)         2734.6230     2391.6606   
 4222  63.5242  2675(52)         2730.6152     2390.9136   
 4223  63.5392  2645(51)         2726.2429     2390.1660   
 4224  63.5542  2616(51)         2721.5471     2389.4187   
 4225  63.5692  2593(51)         2716.5806     2388.6716   
 4226  63.5842  2664(52)         2711.3821     2387.9243   
 4227  63.5992  2625(51)         2706.0586     2387.1770   
 4228  63.6142  2588(51)         2700.7034     2386.4297   
 4229  63.6292  2639(51)         2695.4063     2385.6824   
 4230  63.6442  2645(51)         2690.2988     2384.9351   
 4231  63.6592  2659(52)         2685.3335     2384.1877   
 4232  63.6742  2655(52)         2680.6030     2383.4407   
 4233  63.6892  2579(51)         2676.0793     2382.6934   
 4234  63.7042  2507(50)         2671.4424     2381.9460   
 4235  63.7192  2599(51)         2667.2603     2381.1990   
 4236  63.7342  2615(51)         2663.1338     2380.4514   
 4237  63.7492  2504(50)         2659.0083     2379.7041   
 4238  63.7642  2554(51)         2654.8198     2378.9570   
 4239  63.7792  2599(51)         2650.5359     2378.2097   
 4240  63.7942  2625(51)         2646.1035     2377.4624   
 4241  63.8092  2537(50)         2641.5422     2376.7151   
 4242  63.8242  2448(49)         2636.8342     2375.9678   
 4243  63.8392  2490(50)         2632.0710     2375.2205   
 4244  63.8542  2640(51)         2627.2698     2374.4731   
 4245  63.8692  2553(51)         2622.4724     2373.7261   
 4246  63.8842  2582(51)         2617.7126     2372.9788   
 4247  63.8992  2551(51)         2613.0149     2372.2314   
 4248  63.9142  2560(51)         2608.3904     2371.4841   
 4249  63.9292  2538(50)         2603.8438     2370.7368   
 4250  63.9442  2535(50)         2599.3694     2369.9895   
 4251  63.9592  2533(50)         2594.8433     2369.2424   
 4252  63.9742  2561(51)         2590.5195     2368.4951   
 4253  63.9892  2529(50)         2586.2644     2367.7478   
 4254  64.0042  2536(50)         2582.1021     2367.0005   
 4255  64.0192  2517(50)         2578.0581     2366.2532   
 4256  64.0342  2512(50)         2574.1707     2365.5059   
 4257  64.0492  2609(51)         2570.4521     2364.7585   
 4258  64.0642  2512(50)         2566.9409     2364.0112   
 4259  64.0792  2533(50)         2563.7151     2363.2646   
 4260  64.0942  2623(51)         2560.6416     2362.5166   
 4261  64.1092  2575(51)         2557.8689     2361.7695   
 4262  64.1242  2496(50)         2555.3474     2361.0222   
 4263  64.1392  2485(50)         2553.0630     2360.2749   
 4264  64.1542  2477(50)         2550.9888     2359.5278   
 4265  64.1692  2516(50)         2549.0874     2358.7805   
 4266  64.1842  2568(51)         2547.3123     2358.0332   
 4267  64.1992  2576(51)         2545.6230     2357.2859   
 4268  64.2142  2621(51)         2543.9292     2356.5388   
 4269  64.2292  2569(51)         2542.2124     2355.7915   
 4270  64.2442  2545(50)         2540.3564     2355.0439   
 4271  64.2592  2535(50)         2538.3425     2354.2966   
 4272  64.2742  2543(50)         2536.1348     2353.5493   
 4273  64.2892  2568(51)         2533.7031     2352.8020   
 4274  64.3042  2534(50)         2531.0698     2352.0549   
 4275  64.3192  2516(50)         2528.2598     2351.3076   
 4276  64.3342  2490(50)         2525.3044     2350.5603   
 4277  64.3492  2469(50)         2522.2524     2349.8130   
 4278  64.3642  2499(50)         2519.1514     2349.0659   
 4279  64.3792  2508(50)         2516.0762     2348.3186   
 4280  64.3942  2506(50)         2513.0698     2347.5713   
 4281  64.4092  2549(50)         2510.1777     2346.8242   
 4282  64.4242  2535(50)         2507.3914     2346.0769   
 4283  64.4392  2454(50)         2504.7993     2345.3293   
 4284  64.4542  2557(51)         2502.3818     2344.5828   
 4285  64.4692  2555(51)         2500.1304     2343.8347   
 4286  64.4842  2576(51)         2498.0454     2343.0874   
 4287  64.4992  2498(50)         2496.1152     2342.3403   
 4288  64.5142  2445(49)         2494.3279     2341.5930   
 4289  64.5292  2393(49)         2492.6743     2340.8457   
 4290  64.5442  2591(51)         2491.1477     2340.0984   
 4291  64.5592  2511(50)         2489.7456     2339.3513   
 4292  64.5742  2524(50)         2488.4785     2338.6040   
 4293  64.5892  2496(50)         2487.3325     2337.8567   
 4294  64.6042  2486(50)         2486.3411     2337.1094   
 4295  64.6192  2525(50)         2485.4795     2336.3618   
 4296  64.6342  2541(50)         2484.7632     2335.6145   
 4297  64.6492  2525(50)         2484.1973     2334.8674   
 4298  64.6642  2570(51)         2483.6755     2334.1201   
 4299  64.6792  2530(50)         2483.4202     2333.3728   
 4300  64.6942  2606(51)         2483.2615     2332.6257   
 4301  64.7092  2497(50)         2483.2058     2331.8784   
 4302  64.7242  2567(51)         2483.2314     2331.1311   
 4303  64.7392  2522(50)         2483.3257     2330.3838   
 4304  64.7542  2498(50)         2483.4453     2329.6367   
 4305  64.7692  2537(50)         2483.5818     2328.8894   
 4306  64.7842  2566(51)         2483.7231     2328.1421   
 4307  64.7992  2615(51)         2483.8591     2327.3948   
 4308  64.8142  2575(51)         2483.9890     2326.6472   
 4309  64.8292  2584(51)         2484.1147     2325.9009   
 4310  64.8442  2512(50)         2484.2410     2325.1528   
 4311  64.8592  2534(50)         2484.3750     2324.4055   
 4312  64.8742  2415(49)         2484.5200     2323.6582   
 4313  64.8892  2397(49)         2484.7224     2322.9109   
 4314  64.9042  2568(51)         2484.8882     2322.1638   
 4315  64.9192  2551(51)         2485.0317     2321.4165   
 4316  64.9342  2614(51)         2485.1580     2320.6692   
 4317  64.9492  2570(51)         2485.3093     2319.9221   
 4318  64.9642  2617(51)         2485.3757     2319.1748   
 4319  64.9792  2574(51)         2485.3855     2318.4275   
 4320  64.9942  2484(50)         2485.3318     2317.6799   
 4321  65.0092  2534(50)         2485.2166     2316.9326   
 4322  65.0242  2554(51)         2485.0510     2316.1853   
 4323  65.0392  2489(50)         2484.8574     2315.4382   
 4324  65.0542  2533(50)         2484.6663     2314.6909   
 4325  65.0692  2556(51)         2485.0112     2314.4373   
 4326  65.0842  2532(50)         2485.4758     2314.2593   
 4327  65.0992  2496(50)         2486.1021     2314.0815   
 4328  65.1142  2531(50)         2486.9167     2313.9038   
 4329  65.1292  2500(50)         2487.9822     2313.7258   
 4330  65.1442  2475(50)         2489.3032     2313.5481   
 4331  65.1592  2472(50)         2490.9207     2313.3704   
 4332  65.1742  2562(51)         2492.8345     2313.1924   
 4333  65.1892  2544(50)         2495.1079     2313.0146   
 4334  65.2042  2445(49)         2497.7251     2312.8369   
 4335  65.2192  2507(50)         2500.6523     2312.6589   
 4336  65.2342  2570(51)         2503.8865     2312.4810   
 4337  65.2492  2517(50)         2507.4089     2312.3032   
 4338  65.2642  2546(50)         2511.1885     2312.1255   
 4339  65.2792  2560(51)         2515.1887     2311.9475   
 4340  65.2942  2619(51)         2519.3682     2311.7698   
 4341  65.3092  2518(50)         2523.6772     2311.5920   
 4342  65.3242  2536(50)         2528.0598     2311.4141   
 4343  65.3392  2511(50)         2532.4529     2311.2363   
 4344  65.3542  2566(51)         2536.6809     2311.0586   
 4345  65.3692  2576(51)         2540.8831     2310.8806   
 4346  65.3842  2523(50)         2544.8916     2310.7029   
 4347  65.3992  2506(50)         2548.6211     2310.5249   
 4348  65.4142  2489(50)         2551.9788     2310.3472   
 4349  65.4292  2550(50)         2554.9324     2310.1694   
 4350  65.4442  2666(52)         2557.4590     2309.9915   
 4351  65.4592  2506(50)         2559.5027     2309.8137   
 4352  65.4742  2588(51)         2561.0757     2309.6357   
 4353  65.4892  2563(51)         2562.0874     2309.4580   
 4354  65.5042  2663(52)         2562.7729     2309.2803   
 4355  65.5192  2636(51)         2563.0669     2309.1023   
 4356  65.5342  2607(51)         2563.0166     2308.9246   
 4357  65.5492  2571(51)         2562.6704     2308.7468   
 4358  65.5642  2585(51)         2562.0735     2308.5688   
 4359  65.5792  2561(51)         2561.2661     2308.3911   
 4360  65.5942  2502(50)         2560.2742     2308.2131   
 4361  65.6092  2504(50)         2559.1082     2308.0354   
 4362  65.6242  2540(50)         2557.7922     2307.8577   
 4363  65.6392  2411(49)         2556.3157     2307.6797   
 4364  65.6542  2483(50)         2554.6741     2307.5020   
 4365  65.6692  2527(50)         2552.8611     2307.3242   
 4366  65.6842  2497(50)         2550.8743     2307.1462   
 4367  65.6992  2516(50)         2548.7124     2306.9685   
 4368  65.7142  2509(50)         2546.3975     2306.7905   
 4369  65.7292  2500(50)         2543.9426     2306.6128   
 4370  65.7442  2510(50)         2541.3716     2306.4348   
 4371  65.7592  2629(51)         2538.7148     2306.2571   
 4372  65.7742  2587(51)         2536.0002     2306.0793   
 4373  65.7892  2606(51)         2533.2546     2305.9014   
 4374  65.8042  2589(51)         2530.4939     2305.7236   
 4375  65.8192  2538(50)         2527.7495     2305.5459   
 4376  65.8342  2593(51)         2525.0090     2305.3679   
 4377  65.8492  2510(50)         2522.2778     2305.1902   
 4378  65.8642  2530(50)         2519.5474     2305.0125   
 4379  65.8792  2604(51)         2516.8013     2304.8345   
 4380  65.8942  2562(51)         2514.0332     2304.6567   
 4381  65.9092  2519(50)         2511.2231     2304.4788   
 4382  65.9242  2409(49)         2508.3589     2304.3010   
 4383  65.9392  2449(49)         2505.4128     2304.1230   
 4384  65.9542  2568(51)         2502.4136     2303.9456   
 4385  65.9692  2522(50)         2499.3357     2303.7676   
 4386  65.9842  2459(50)         2496.1824     2303.5896   
 4387  65.9992  2463(50)         2492.9583     2303.4119   
 4388  66.0142  2527(50)         2489.6687     2303.2341   
 4389  66.0292  2555(51)         2486.3467     2303.0562   
 4390  66.0442  2490(50)         2482.9526     2302.8784   
 4391  66.0592  2522(50)         2479.5225     2302.7007   
 4392  66.0742  2557(51)         2476.0681     2302.5227   
 4393  66.0892  2524(50)         2472.6047     2302.3450   
 4394  66.1042  2580(51)         2469.1492     2302.1672   
 4395  66.1192  2603(51)         2465.7173     2301.9893   
 4396  66.1342  2493(50)         2462.3486     2301.8113   
 4397  66.1492  2449(49)         2459.0339     2301.6335   
 4398  66.1642  2539(50)         2455.8101     2301.4558   
 4399  66.1792  2489(50)         2452.6995     2301.2778   
 4400  66.1942  2540(50)         2449.7241     2301.1001   
 4401  66.2092  2487(50)         2446.9033     2300.9224   
 4402  66.2242  2461(50)         2444.2544     2300.7444   
 4403  66.2392  2429(49)         2441.7930     2300.5667   
 4404  66.2542  2456(50)         2439.5571     2300.3889   
 4405  66.2692  2468(50)         2437.5247     2300.2109   
 4406  66.2842  2497(50)         2435.6831     2300.0332   
 4407  66.2992  2518(50)         2434.0515     2299.8555   
 4408  66.3142  2531(50)         2432.6292     2299.6775   
 4409  66.3292  2482(50)         2431.4072     2299.4998   
 4410  66.3442  2513(50)         2430.3843     2299.3218   
 4411  66.3592  2516(50)         2429.5671     2299.1440   
 4412  66.3742  2534(50)         2428.8997     2298.9661   
 4413  66.3892  2536(50)         2428.3882     2298.7883   
 4414  66.4042  2431(49)         2428.0173     2298.6106   
 4415  66.4192  2467(50)         2427.7720     2298.4326   
 4416  66.4342  2462(50)         2427.6401     2298.2549   
 4417  66.4492  2500(50)         2427.6167     2298.0771   
 4418  66.4642  2521(50)         2427.6797     2297.8992   
 4419  66.4792  2562(51)         2427.8333     2297.7214   
 4420  66.4942  2501(50)         2428.0713     2297.5435   
 4421  66.5092  2555(51)         2428.3975     2297.3657   
 4422  66.5242  2472(50)         2428.7893     2297.1880   
 4423  66.5392  2508(50)         2429.3042     2297.0100   
 4424  66.5542  2521(50)         2429.8865     2296.8323   
 4425  66.5692  2560(51)         2430.5996     2296.6545   
 4426  66.5842  2466(50)         2431.4131     2296.4766   
 4427  66.5992  2474(50)         2432.3101     2296.2988   
 4428  66.6142  2616(51)         2433.3008     2296.1208   
 4429  66.6292  2574(51)         2434.3582     2295.9431   
 4430  66.6442  2539(50)         2435.4614     2295.7654   
 4431  66.6592  2488(50)         2436.5261     2295.5874   
 4432  66.6742  2501(50)         2437.6506     2295.4097   
 4433  66.6892  2537(50)         2438.7244     2295.2317   
 4434  66.7042  2534(50)         2439.7864     2295.0542   
 4435  66.7192  2554(51)         2440.7898     2294.8762   
 4436  66.7342  2461(50)         2441.7297     2294.6982   
 4437  66.7492  2387(49)         2442.5999     2294.5205   
 4438  66.7642  2480(50)         2443.4028     2294.3428   
 4439  66.7792  2507(50)         2444.1409     2294.1648   
 4440  66.7942  2517(50)         2444.8179     2293.9871   
 4441  66.8092  2523(50)         2445.4177     2293.8093   
 4442  66.8242  2511(50)         2445.9788     2293.6313   
 4443  66.8392  2608(51)         2446.4077     2293.4536   
 4444  66.8542  2560(51)         2446.8689     2293.2756   
 4445  66.8692  2565(51)         2447.2563     2293.0979   
 4446  66.8842  2501(50)         2447.5659     2292.9199   
 4447  66.8992  2505(50)         2447.8394     2292.7422   
 4448  66.9142  2571(51)         2448.0649     2292.5645   
 4449  66.9292  2425(49)         2448.2559     2292.3865   
 4450  66.9442  2448(49)         2448.4077     2292.2087   
 4451  66.9592  2543(50)         2448.5754     2292.0310   
 4452  66.9742  2497(50)         2448.7644     2291.8530   
 4453  66.9892  2517(50)         2448.9980     2291.6753   
 4454  67.0042  2551(51)         2449.2871     2291.4976   
 4455  67.0192  2447(49)         2449.6519     2291.3196   
 4456  67.0342  2372(49)         2450.0825     2291.1418   
 4457  67.0492  2510(50)         2450.5745     2290.9639   
 4458  67.0642  2490(50)         2451.1274     2290.7861   
 4459  67.0792  2521(50)         2451.6729     2290.6084   
 4460  67.0942  2441(49)         2452.1714     2290.4304   
 4461  67.1092  2528(50)         2452.5576     2290.2527   
 4462  67.1242  2567(51)         2452.8164     2290.0747   
 4463  67.1392  2435(49)         2452.8906     2289.8970   
 4464  67.1542  2535(50)         2452.6973     2289.7192   
 4465  67.1692  2562(51)         2452.2161     2289.5413   
 4466  67.1842  2535(50)         2451.4260     2289.3635   
 4467  67.1992  2472(50)         2450.3232     2289.1858   
 4468  67.2142  2448(49)         2448.9219     2289.0078   
 4469  67.2292  2289(48)         2447.2554     2288.8301   
 4470  67.2442  2280(48)         2445.3704     2288.6521   
 4471  67.2592  2198(47)         2443.3264     2288.4744   
 4472  67.2742  2167(47)         2441.1909     2288.2966   
 4473  67.2892  2255(47)         2439.0178     2288.1187   
 4474  67.3042  2365(49)         2436.8430     2287.9409   
 4475  67.3192  2327(48)         2434.7834     2287.7629   
 4476  67.3342  2458(50)         2432.8489     2287.5852   
 4477  67.3492  2516(50)         2431.0735     2287.4075   
 4478  67.3642  2502(50)         2429.4685     2287.2295   
 4479  67.3792  2458(50)         2428.0461     2287.0518   
 4480  67.3942  2558(51)         2426.8047     2286.8740   
 4481  67.4092  2403(49)         2425.7341     2286.6960   
 4482  67.4242  2415(49)         2424.8220     2286.5183   
 4483  67.4392  2416(49)         2424.0588     2286.3403   
 4484  67.4542  2318(48)         2423.4087     2286.1628   
 4485  67.4692  2452(50)         2422.8706     2285.9849   
 4486  67.4842  2397(49)         2422.4275     2285.8069   
 4487  67.4992  2436(49)         2422.0845     2285.6292   
 4488  67.5142  2323(48)         2421.8135     2285.4512   
 4489  67.5292  2478(50)         2421.6858     2285.2734   
 4490  67.5442  2353(49)         2421.5933     2285.0957   
 4491  67.5592  2445(49)         2421.5701     2284.9177   
 4492  67.5742  2351(48)         2421.6675     2284.7400   
 4493  67.5892  2469(50)         2421.8533     2284.5623   
 4494  67.6042  2393(49)         2422.1404     2284.3843   
 4495  67.6192  2486(50)         2422.5247     2284.2065   
 4496  67.6342  2491(50)         2423.0164     2284.0286   
 4497  67.6492  2388(49)         2423.5061     2283.8511   
 4498  67.6642  2404(49)         2424.1777     2283.6731   
 4499  67.6792  2400(49)         2424.8613     2283.4951   
 4500  67.6942  2396(49)         2425.5894     2283.3174   
 4501  67.7092  2419(49)         2426.2844     2283.1396   
 4502  67.7242  2310(48)         2427.0688     2282.9617   
 4503  67.7392  2317(48)         2427.8682     2282.7839   
 4504  67.7542  2409(49)         2428.6768     2282.6060   
 4505  67.7692  2435(49)         2429.4902     2282.4282   
 4506  67.7842  2427(49)         2430.3101     2282.2505   
 4507  67.7992  2388(49)         2431.1262     2282.0725   
 4508  67.8142  2413(49)         2431.9248     2281.8948   
 4509  67.8292  2361(49)         2432.7051     2281.7170   
 4510  67.8442  2427(49)         2433.4526     2281.5391   
 4511  67.8592  2380(49)         2434.1563     2281.3613   
 4512  67.8742  2402(49)         2434.8032     2281.1833   
 4513  67.8892  2379(49)         2435.3809     2281.0056   
 4514  67.9042  2413(49)         2435.8862     2280.8279   
 4515  67.9192  2335(48)         2436.3311     2280.6499   
 4516  67.9342  2347(48)         2436.6797     2280.4722   
 4517  67.9492  2395(49)         2436.9822     2280.2942   
 4518  67.9642  2385(49)         2437.2546     2280.1165   
 4519  67.9792  2332(48)         2437.4827     2279.9387   
 4520  67.9942  2284(48)         2437.8079     2279.7607   
 4521  68.0092  2347(48)         2438.2310     2279.5830   
 4522  68.0242  2416(49)         2438.8037     2279.4053   
 4523  68.0392  2400(49)         2439.5825     2279.2273   
 4524  68.0542  2360(49)         2440.6145     2279.0496   
 4525  68.0692  2375(49)         2441.9431     2278.8716   
 4526  68.0842  2443(49)         2443.6001     2278.6938   
 4527  68.0992  2431(49)         2445.6196     2278.5161   
 4528  68.1142  2345(48)         2447.9629     2278.3381   
 4529  68.1292  2339(48)         2450.6602     2278.1604   
 4530  68.1442  2425(49)         2453.6311     2277.9827   
 4531  68.1592  2426(49)         2456.8157     2277.8047   
 4532  68.1742  2385(49)         2460.1370     2277.6270   
 4533  68.1892  2483(50)         2463.4878     2277.4490   
 4534  68.2042  2448(49)         2466.7383     2277.2715   
 4535  68.2192  2333(48)         2469.6938     2277.0933   
 4536  68.2342  2387(49)         2472.3354     2276.9155   
 4537  68.2492  2412(49)         2474.4626     2276.7378   
 4538  68.2642  2493(50)         2475.9514     2276.5598   
 4539  68.2792  2397(49)         2476.7039     2276.3821   
 4540  68.2942  2378(49)         2476.6763     2276.2043   
 4541  68.3092  2454(50)         2475.7903     2276.0264   
 4542  68.3242  2360(49)         2474.0823     2275.8486   
 4543  68.3392  2362(49)         2471.6003     2275.6709   
 4544  68.3542  2364(49)         2468.4246     2275.4929   
 4545  68.3692  2268(48)         2464.6753     2275.3152   
 4546  68.3842  2399(49)         2460.4084     2275.1372   
 4547  68.3992  2371(49)         2455.8213     2274.9597   
 4548  68.4142  2339(48)         2450.9893     2274.7815   
 4549  68.4292  2482(50)         2446.0337     2274.6038   
 4550  68.4442  2311(48)         2441.0427     2274.4260   
 4551  68.4592  2343(48)         2436.0991     2274.2480   
 4552  68.4742  2405(49)         2431.2522     2274.0703   
 4553  68.4892  2333(48)         2426.5588     2273.8926   
 4554  68.5042  2371(49)         2422.0461     2273.7146   
 4555  68.5192  2310(48)         2417.7439     2273.5369   
 4556  68.5342  2333(48)         2413.6772     2273.3591   
 4557  68.5492  2399(49)         2409.8391     2273.1812   
 4558  68.5642  2358(49)         2406.2424     2273.0034   
 4559  68.5792  2342(48)         2402.9070     2272.8257   
 4560  68.5942  2450(49)         2399.8047     2272.6477   
 4561  68.6092  2410(49)         2396.9299     2272.4700   
 4562  68.6242  2470(50)         2394.2998     2272.2920   
 4563  68.6392  2336(48)         2391.8662     2272.1143   
 4564  68.6542  2406(49)         2389.6335     2271.9363   
 4565  68.6692  2429(49)         2387.5884     2271.7585   
 4566  68.6842  2408(49)         2385.7151     2271.5808   
 4567  68.6992  2429(49)         2383.9983     2271.4028   
 4568  68.7142  2404(49)         2382.4236     2271.2251   
 4569  68.7292  2410(49)         2380.9858     2271.0474   
 4570  68.7442  2371(49)         2379.6514     2270.8694   
 4571  68.7592  2357(49)         2378.4185     2270.6917   
 4572  68.7742  2397(49)         2377.2754     2270.5139   
 4573  68.7892  2394(49)         2376.2083     2270.3359   
 4574  68.8042  2407(49)         2375.2102     2270.1582   
 4575  68.8192  2295(48)         2374.2703     2269.9802   
 4576  68.8342  2410(49)         2373.3723     2269.8025   
 4577  68.8492  2357(49)         2372.5259     2269.6248   
 4578  68.8642  2303(48)         2371.7400     2269.4468   
 4579  68.8792  2376(49)         2370.9243     2269.2690   
 4580  68.8942  2303(48)         2370.1819     2269.0911   
 4581  68.9092  2379(49)         2369.4697     2268.9133   
 4582  68.9242  2308(48)         2368.7920     2268.7356   
 4583  68.9392  2424(49)         2368.1528     2268.5576   
 4584  68.9542  2342(48)         2367.5081     2268.3799   
 4585  68.9692  2365(49)         2367.0149     2268.2019   
 4586  68.9842  2433(49)         2366.5398     2268.0242   
 4587  68.9992  2371(49)         2366.1394     2267.8464   
 4588  69.0142  2345(48)         2365.8245     2267.6685   
 4589  69.0292  2322(48)         2365.6074     2267.4907   
 4590  69.0442  2468(50)         2365.5007     2267.3130   
 4591  69.0592  2357(49)         2365.5200     2267.1350   
 4592  69.0742  2393(49)         2365.6743     2266.9573   
 4593  69.0892  2383(49)         2365.9805     2266.7793   
 4594  69.1042  2430(49)         2366.4324     2266.6016   
 4595  69.1192  2323(48)         2367.0496     2266.4236   
 4596  69.1342  2411(49)         2367.8105     2266.2458   
 4597  69.1492  2444(49)         2368.7734     2266.0681   
 4598  69.1642  2413(49)         2369.9177     2265.8901   
 4599  69.1792  2427(49)         2371.1650     2265.7124   
 4600  69.1942  2417(49)         2372.6401     2265.5347   
 4601  69.2092  2356(49)         2374.2715     2265.3567   
 4602  69.2242  2362(49)         2376.0359     2265.1790   
 4603  69.2392  2448(49)         2377.8965     2265.0012   
 4604  69.2542  2427(49)         2379.8330     2264.8232   
 4605  69.2692  2358(49)         2381.8110     2264.6455   
 4606  69.2842  2392(49)         2383.8108     2264.4678   
 4607  69.2992  2364(49)         2385.7551     2264.2898   
 4608  69.3142  2282(48)         2387.6321     2264.1118   
 4609  69.3292  2405(49)         2389.3848     2263.9343   
 4610  69.3442  2402(49)         2390.9958     2263.7563   
 4611  69.3592  2413(49)         2392.4177     2263.5784   
 4612  69.3742  2378(49)         2393.6309     2263.4006   
 4613  69.3892  2303(48)         2394.6138     2263.2229   
 4614  69.4042  2311(48)         2395.3506     2263.0449   
 4615  69.4192  2323(48)         2395.8301     2262.8672   
 4616  69.4342  2390(49)         2396.0498     2262.6895   
 4617  69.4492  2405(49)         2395.9092     2262.5115   
 4618  69.4642  2383(49)         2395.5896     2262.3337   
 4619  69.4792  2401(49)         2395.0110     2262.1560   
 4620  69.4942  2385(49)         2394.1685     2261.9780   
 4621  69.5092  2387(49)         2393.0796     2261.8003   
 4622  69.5242  2357(49)         2391.7607     2261.6226   
 4623  69.5392  2395(49)         2390.2422     2261.4446   
 4624  69.5542  2351(48)         2388.5264     2261.2666   
 4625  69.5692  2397(49)         2386.6565     2261.0889   
 4626  69.5842  2288(48)         2384.6770     2260.9111   
 4627  69.5992  2405(49)         2382.6052     2260.7332   
 4628  69.6142  2381(49)         2380.4907     2260.5554   
 4629  69.6292  2356(49)         2378.3752     2260.3777   
 4630  69.6442  2370(49)         2376.2375     2260.1997   
 4631  69.6592  2406(49)         2374.2170     2260.0220   
 4632  69.6742  2440(49)         2372.2917     2259.8442   
 4633  69.6892  2457(50)         2370.4854     2259.6663   
 4634  69.7042  2398(49)         2368.8215     2259.4885   
 4635  69.7192  2339(48)         2367.3096     2259.3105   
 4636  69.7342  2429(49)         2365.9653     2259.1328   
 4637  69.7492  2333(48)         2364.7996     2258.9551   
 4638  69.7642  2328(48)         2363.8049     2258.7771   
 4639  69.7792  2432(49)         2362.9924     2258.5994   
 4640  69.7942  2370(49)         2362.3428     2258.4214   
 4641  69.8092  2467(50)         2361.8943     2258.2437   
 4642  69.8242  2316(48)         2361.5962     2258.0659   
 4643  69.8392  2337(48)         2361.4924     2257.8879   
 4644  69.8542  2413(49)         2361.5623     2257.7102   
 4645  69.8692  2476(50)         2361.8088     2257.5322   
 4646  69.8842  2330(48)         2362.2271     2257.3545   
 4647  69.8992  2394(49)         2362.8179     2257.1768   
 4648  69.9142  2482(50)         2363.5837     2256.9988   
 4649  69.9292  2391(49)         2364.5242     2256.8210   
 4650  69.9442  2396(49)         2365.6335     2256.6433   
 4651  69.9592  2405(49)         2366.9119     2256.4653   
 4652  69.9742  2444(49)         2368.3518     2256.2876   
 4653  69.9892  2430(49)         2369.9541     2256.1099   
 4654  70.0042  2373(49)         2371.7063     2255.9319   
 4655  70.0192  2418(49)         2373.6030     2255.7542   
 4656  70.0342  2334(48)         2375.6179     2255.5762   
 4657  70.0492  2327(48)         2377.7405     2255.3984   
 4658  70.0642  2443(49)         2380.0430     2255.3574   
 4659  70.0792  2428(49)         2382.4500     2255.4358   
 4660  70.0942  2409(49)         2384.9927     2255.5144   
 4661  70.1092  2443(49)         2387.5010     2255.5930   
 4662  70.1242  2442(49)         2389.9456     2255.6716   
 4663  70.1392  2504(50)         2392.2725     2255.7502   
 4664  70.1542  2340(48)         2394.4448     2255.8286   
 4665  70.1692  2354(49)         2396.4063     2255.9072   
 4666  70.1842  2300(48)         2398.1072     2255.9858   
 4667  70.1992  2340(48)         2399.5044     2256.0645   
 4668  70.2142  2436(49)         2400.5615     2256.1428   
 4669  70.2292  2319(48)         2401.2544     2256.2214   
 4670  70.2442  2395(49)         2401.5684     2256.3000   
 4671  70.2592  2342(48)         2401.5085     2256.3787   
 4672  70.2742  2344(48)         2401.0923     2256.4570   
 4673  70.2892  2424(49)         2400.3364     2256.5356   
 4674  70.3042  2372(49)         2399.3223     2256.6143   
 4675  70.3192  2353(49)         2398.0217     2256.6929   
 4676  70.3342  2437(49)         2396.4929     2256.7715   
 4677  70.3492  2424(49)         2394.8010     2256.8499   
 4678  70.3642  2416(49)         2392.9243     2256.9285   
 4679  70.3792  2346(48)         2390.9998     2257.0071   
 4680  70.3942  2443(49)         2389.0425     2257.0857   
 4681  70.4092  2351(48)         2387.0630     2257.1641   
 4682  70.4242  2359(49)         2385.0911     2257.2427   
 4683  70.4392  2370(49)         2383.1501     2257.3213   
 4684  70.4542  2415(49)         2381.2729     2257.3999   
 4685  70.4692  2421(49)         2379.4675     2257.4785   
 4686  70.4842  2377(49)         2377.5906     2257.5569   
 4687  70.4992  2403(49)         2375.9902     2257.6355   
 4688  70.5142  2361(49)         2374.5139     2257.7141   
 4689  70.5292  2440(49)         2373.1707     2257.7927   
 4690  70.5442  2342(48)         2371.9805     2257.8713   
 4691  70.5592  2328(48)         2370.9209     2257.9497   
 4692  70.5742  2382(49)         2369.9834     2258.0283   
 4693  70.5892  2278(48)         2369.1694     2258.1069   
 4694  70.6042  2376(49)         2368.4663     2258.1855   
 4695  70.6192  2326(48)         2367.7942     2258.2642   
 4696  70.6342  2371(49)         2367.2695     2258.3425   
 4697  70.6492  2430(49)         2366.8110     2258.4211   
 4698  70.6642  2382(49)         2366.4026     2258.4998   
 4699  70.6792  2409(49)         2366.0303     2258.5784   
 4700  70.6942  2364(49)         2365.6042     2258.6567   
 4701  70.7092  2353(49)         2365.2473     2258.7354   
 4702  70.7242  2348(48)         2364.9336     2258.8140   
 4703  70.7392  2428(49)         2364.5645     2258.8926   
 4704  70.7542  2381(49)         2364.1873     2258.9709   
 4705  70.7692  2445(49)         2363.7817     2259.0496   
 4706  70.7842  2392(49)         2363.3279     2259.1282   
 4707  70.7992  2356(49)         2362.8206     2259.2068   
 4708  70.8142  2309(48)         2362.2332     2259.2854   
 4709  70.8292  2344(48)         2361.5620     2259.3638   
 4710  70.8442  2357(49)         2360.7966     2259.4424   
 4711  70.8592  2391(49)         2359.9346     2259.5210   
 4712  70.8742  2344(48)         2358.9744     2259.5996   
 4713  70.8892  2429(49)         2357.9204     2259.6782   
 4714  70.9042  2290(48)         2356.7815     2259.7566   
 4715  70.9192  2302(48)         2355.5720     2259.8352   
 4716  70.9342  2442(49)         2354.2773     2259.9138   
 4717  70.9492  2281(48)         2352.9783     2259.9924   
 4718  70.9642  2369(49)         2351.6055     2260.0708   
 4719  70.9792  2397(49)         2350.2710     2260.1494   
 4720  70.9942  2427(49)         2348.9856     2260.2280   
 4721  71.0092  2299(48)         2347.7419     2260.3066   
 4722  71.0242  2347(48)         2346.5652     2260.3850   
 4723  71.0392  2385(49)         2345.4456     2260.4636   
 4724  71.0542  2322(48)         2344.4063     2260.5422   
 4725  71.0692  2392(49)         2343.4541     2260.6208   
 4726  71.0842  2286(48)         2342.5952     2260.6995   
 4727  71.0992  2472(50)         2341.8403     2260.7778   
 4728  71.1142  2375(49)         2341.1799     2260.8564   
 4729  71.1292  2219(47)         2340.6221     2260.9351   
 4730  71.1442  2213(47)         2340.1689     2261.0137   
 4731  71.1592  2360(49)         2339.8179     2261.0920   
 4732  71.1742  2373(49)         2339.5300     2261.1707   
 4733  71.1892  2349(48)         2339.3853     2261.2493   
 4734  71.2042  2329(48)         2339.3203     2261.3279   
 4735  71.2192  2224(47)         2339.3745     2261.4065   
 4736  71.2342  2339(48)         2339.5271     2261.4849   
 4737  71.2492  2349(48)         2339.7698     2261.5635   
 4738  71.2642  2323(48)         2340.1013     2261.6421   
 4739  71.2792  2246(47)         2340.5186     2261.7207   
 4740  71.2942  2348(48)         2341.0159     2261.7993   
 4741  71.3092  2433(49)         2341.5886     2261.8777   
 4742  71.3242  2394(49)         2342.2407     2261.9563   
 4743  71.3392  2340(48)         2342.9382     2262.0349   
 4744  71.3542  2331(48)         2343.6982     2262.1135   
 4745  71.3692  2377(49)         2344.5039     2262.1921   
 4746  71.3842  2325(48)         2345.3438     2262.2705   
 4747  71.3992  2324(48)         2346.1946     2262.3491   
 4748  71.4142  2317(48)         2347.0667     2262.4277   
 4749  71.4292  2413(49)         2347.9331     2262.5063   
 4750  71.4442  2377(49)         2348.7820     2262.5847   
 4751  71.4592  2487(50)         2349.5984     2262.6633   
 4752  71.4742  2350(48)         2350.3723     2262.7419   
 4753  71.4892  2328(48)         2351.0955     2262.8206   
 4754  71.5042  2268(48)         2351.7737     2262.8989   
 4755  71.5192  2377(49)         2352.3723     2262.9775   
 4756  71.5342  2302(48)         2352.9272     2263.0562   
 4757  71.5492  2304(48)         2353.3711     2263.1348   
 4758  71.5642  2433(49)         2353.8350     2263.2134   
 4759  71.5792  2382(49)         2354.2661     2263.2917   
 4760  71.5942  2280(48)         2354.6780     2263.3704   
 4761  71.6092  2409(49)         2355.0857     2263.4490   
 4762  71.6242  2375(49)         2355.4939     2263.5276   
 4763  71.6392  2512(50)         2355.9165     2263.6062   
 4764  71.6542  2371(49)         2356.3613     2263.6846   
 4765  71.6692  2379(49)         2356.8301     2263.7632   
 4766  71.6842  2398(49)         2357.3333     2263.8418   
 4767  71.6992  2319(48)         2357.8740     2263.9204   
 4768  71.7142  2369(49)         2358.4602     2263.9988   
 4769  71.7292  2324(48)         2359.0723     2264.0774   
 4770  71.7442  2297(48)         2359.7168     2264.1560   
 4771  71.7592  2275(48)         2360.3870     2264.2346   
 4772  71.7742  2378(49)         2361.0791     2264.3130   
 4773  71.7892  2307(48)         2361.7810     2264.3916   
 4774  71.8042  2337(48)         2362.5393     2264.4702   
 4775  71.8192  2329(48)         2363.2380     2264.5488   
 4776  71.8342  2331(48)         2363.9231     2264.6274   
 4777  71.8492  2320(48)         2364.5955     2264.7058   
 4778  71.8642  2334(48)         2365.2158     2264.7844   
 4779  71.8792  2340(48)         2365.8301     2264.8630   
 4780  71.8942  2353(49)         2366.4182     2264.9417   
 4781  71.9092  2283(48)         2366.9861     2265.0200   
 4782  71.9242  2354(49)         2367.5352     2265.0986   
 4783  71.9392  2364(49)         2368.0771     2265.1772   
 4784  71.9542  2334(48)         2368.6248     2265.2559   
 4785  71.9692  2339(48)         2369.1948     2265.3345   
 4786  71.9842  2351(48)         2369.8030     2265.4128   
 4787  71.9992  2339(48)         2370.4670     2265.4915   
 4788  72.0142  2355(49)         2371.2058     2265.5701   
 4789  72.0292  2447(49)         2372.0339     2265.6487   
 4790  72.0442  2347(48)         2372.9644     2265.7273   
 4791  72.0592  2297(48)         2374.0054     2265.8057   
 4792  72.0742  2337(48)         2375.1597     2265.8843   
 4793  72.0892  2312(48)         2376.4282     2265.9629   
 4794  72.1042  2331(48)         2377.8008     2266.0415   
 4795  72.1192  2304(48)         2379.2390     2266.1201   
 4796  72.1342  2305(48)         2380.7720     2266.1985   
 4797  72.1492  2435(49)         2382.3459     2266.2771   
 4798  72.1642  2404(49)         2383.9319     2266.3557   
 4799  72.1792  2387(49)         2385.5010     2266.4343   
 4800  72.1942  2387(49)         2387.0168     2266.5127   
 4801  72.2092  2482(50)         2388.4397     2266.5913   
 4802  72.2242  2411(49)         2389.7297     2266.6699   
 4803  72.2392  2350(48)         2390.8689     2266.7485   
 4804  72.2542  2341(48)         2391.8228     2266.8269   
 4805  72.2692  2324(48)         2392.5620     2266.9055   
 4806  72.2842  2482(50)         2393.0867     2266.9841   
 4807  72.2992  2446(49)         2393.3811     2267.0627   
 4808  72.3142  2334(48)         2393.4504     2267.1414   
 4809  72.3292  2325(48)         2393.2917     2267.2197   
 4810  72.3442  2334(48)         2392.9238     2267.2983   
 4811  72.3592  2382(49)         2392.3760     2267.3770   
 4812  72.3742  2430(49)         2391.6255     2267.4556   
 4813  72.3892  2387(49)         2390.7708     2267.5342   
 4814  72.4042  2411(49)         2389.8105     2267.6125   
 4815  72.4192  2358(49)         2388.7764     2267.6912   
 4816  72.4342  2395(49)         2387.6802     2267.7698   
 4817  72.4492  2453(50)         2386.5850     2267.8484   
 4818  72.4642  2390(49)         2385.5110     2267.9268   
 4819  72.4792  2380(49)         2384.4829     2268.0054   
 4820  72.4942  2431(49)         2383.5203     2268.0840   
 4821  72.5092  2415(49)         2382.6499     2268.1626   
 4822  72.5242  2391(49)         2381.8918     2268.2410   
 4823  72.5392  2397(49)         2381.2615     2268.3196   
 4824  72.5542  2446(49)         2380.7744     2268.3982   
 4825  72.5692  2429(49)         2380.4458     2268.4768   
 4826  72.5842  2381(49)         2380.2698     2268.5554   
 4827  72.5992  2406(49)         2380.2529     2268.6338   
 4828  72.6142  2385(49)         2380.3923     2268.7124   
 4829  72.6292  2360(49)         2380.6843     2268.7910   
 4830  72.6442  2385(49)         2381.1084     2268.8696   
 4831  72.6592  2354(49)         2381.6521     2268.9480   
 4832  72.6742  2376(49)         2382.2957     2269.0266   
 4833  72.6892  2394(49)         2383.0166     2269.1052   
 4834  72.7042  2418(49)         2383.7876     2269.1838   
 4835  72.7192  2427(49)         2384.5540     2269.2625   
 4836  72.7342  2448(49)         2385.3469     2269.3408   
 4837  72.7492  2497(50)         2386.1111     2269.4194   
 4838  72.7642  2395(49)         2386.8198     2269.4980   
 4839  72.7792  2464(50)         2387.4517     2269.5767   
 4840  72.7942  2386(49)         2387.9883     2269.6553   
 4841  72.8092  2343(48)         2388.4158     2269.7336   
 4842  72.8242  2418(49)         2388.7256     2269.8123   
 4843  72.8392  2385(49)         2388.9153     2269.8909   
 4844  72.8542  2475(50)         2388.9402     2269.9695   
 4845  72.8692  2390(49)         2388.8877     2270.0481   
 4846  72.8842  2366(49)         2388.6636     2270.1265   
 4847  72.8992  2356(49)         2388.3899     2270.2051   
 4848  72.9142  2447(49)         2388.0144     2270.2837   
 4849  72.9292  2415(49)         2387.5601     2270.3623   
 4850  72.9442  2412(49)         2387.0007     2270.4407   
 4851  72.9592  2406(49)         2386.3582     2270.5193   
 4852  72.9742  2453(50)         2385.5698     2270.5979   
 4853  72.9892  2426(49)         2384.7549     2270.6765   
 4854  73.0042  2490(50)         2383.8994     2270.7549   
 4855  73.0192  2453(50)         2382.9905     2270.8335   
 4856  73.0342  2343(48)         2382.0408     2270.9121   
 4857  73.0492  2373(49)         2381.0642     2270.9907   
 4858  73.0642  2463(50)         2380.0776     2271.0693   
 4859  73.0792  2434(49)         2379.0981     2271.1477   
 4860  73.0942  2408(49)         2378.1409     2271.2263   
 4861  73.1092  2507(50)         2377.2522     2271.3049   
 4862  73.1242  2457(50)         2376.3965     2271.3835   
 4863  73.1392  2497(50)         2375.5452     2271.4622   
 4864  73.1542  2448(49)         2374.8503     2271.5405   
 4865  73.1692  2404(49)         2374.2551     2271.6191   
 4866  73.1842  2469(50)         2373.7695     2271.6978   
 4867  73.1992  2373(49)         2373.4036     2271.7764   
 4868  73.2142  2357(49)         2373.1602     2271.8547   
 4869  73.2292  2450(49)         2372.9963     2271.9333   
 4870  73.2442  2353(49)         2373.0103     2272.0120   
 4871  73.2592  2404(49)         2373.1707     2272.0906   
 4872  73.2742  2424(49)         2373.4529     2272.1689   
 4873  73.2892  2497(50)         2373.8647     2272.2476   
 4874  73.3042  2409(49)         2374.3992     2272.3262   
 4875  73.3192  2435(49)         2375.0483     2272.4048   
 4876  73.3342  2455(50)         2375.8076     2272.4834   
 4877  73.3492  2437(49)         2376.6426     2272.5618   
 4878  73.3642  2412(49)         2377.5649     2272.6404   
 4879  73.3792  2393(49)         2378.5518     2272.7190   
 4880  73.3942  2350(48)         2379.5776     2272.7976   
 4881  73.4092  2379(49)         2380.6279     2272.8760   
 4882  73.4242  2437(49)         2381.6875     2272.9546   
 4883  73.4392  2446(49)         2382.7148     2273.0332   
 4884  73.4542  2459(50)         2383.7366     2273.1118   
 4885  73.4692  2478(50)         2384.7229     2273.1904   
 4886  73.4842  2364(49)         2385.6636     2273.2688   
 4887  73.4992  2401(49)         2386.5227     2273.3474   
 4888  73.5142  2408(49)         2387.3545     2273.4260   
 4889  73.5292  2328(48)         2388.1309     2273.5046   
 4890  73.5442  2384(49)         2388.8577     2273.5833   
 4891  73.5592  2368(49)         2389.5430     2273.6616   
 4892  73.5742  2444(49)         2390.1968     2273.7402   
 4893  73.5892  2364(49)         2390.8313     2273.8188   
 4894  73.6042  2403(49)         2391.4431     2273.8975   
 4895  73.6192  2410(49)         2392.0754     2273.9761   
 4896  73.6342  2447(49)         2392.7222     2274.0544   
 4897  73.6492  2424(49)         2393.3940     2274.1331   
 4898  73.6642  2383(49)         2394.0674     2274.2117   
 4899  73.6792  2418(49)         2394.7827     2274.2903   
 4900  73.6942  2507(50)         2395.5117     2274.3687   
 4901  73.7092  2471(50)         2396.2354     2274.4473   
 4902  73.7242  2361(49)         2396.9451     2274.5259   
 4903  73.7392  2346(48)         2397.6108     2274.6045   
 4904  73.7542  2430(49)         2398.2053     2274.6829   
 4905  73.7692  2391(49)         2398.7112     2274.7615   
 4906  73.7842  2391(49)         2399.0745     2274.8401   
 4907  73.7992  2379(49)         2399.2874     2274.9187   
 4908  73.8142  2371(49)         2399.3259     2274.9973   
 4909  73.8292  2401(49)         2399.1746     2275.0757   
 4910  73.8442  2420(49)         2398.8313     2275.1543   
 4911  73.8592  2380(49)         2398.2864     2275.2329   
 4912  73.8742  2480(50)         2397.5613     2275.3115   
 4913  73.8892  2394(49)         2396.6658     2275.3901   
 4914  73.9042  2516(50)         2395.6230     2275.4685   
 4915  73.9192  2447(49)         2394.4497     2275.5471   
 4916  73.9342  2479(50)         2393.1868     2275.6257   
 4917  73.9492  2503(50)         2391.8674     2275.7043   
 4918  73.9642  2402(49)         2390.5244     2275.7827   
 4919  73.9792  2350(48)         2389.1904     2275.8613   
 4920  73.9942  2408(49)         2387.8892     2275.9399   
 4921  74.0092  2401(49)         2386.6475     2276.0186   
 4922  74.0242  2429(49)         2385.4824     2276.0969   
 4923  74.0392  2431(49)         2384.3955     2276.1755   
 4924  74.0542  2419(49)         2383.4136     2276.2542   
 4925  74.0692  2387(49)         2382.5293     2276.3328   
 4926  74.0842  2410(49)         2381.7397     2276.4114   
 4927  74.0992  2449(49)         2381.0388     2276.4897   
 4928  74.1142  2352(48)         2380.4185     2276.5684   
 4929  74.1292  2390(49)         2379.8682     2276.6470   
 4930  74.1442  2432(49)         2379.3608     2276.7256   
 4931  74.1592  2427(49)         2378.9202     2276.8040   
 4932  74.1742  2437(49)         2378.5205     2276.8826   
 4933  74.1892  2397(49)         2378.1792     2276.9612   
 4934  74.2042  2460(50)         2377.8440     2277.0398   
 4935  74.2192  2399(49)         2377.5378     2277.1184   
 4936  74.2342  2395(49)         2377.2544     2277.1968   
 4937  74.2492  2388(49)         2376.9963     2277.2754   
 4938  74.2642  2358(49)         2376.7629     2277.3540   
 4939  74.2792  2366(49)         2376.5537     2277.4326   
 4940  74.2942  2360(49)         2376.3640     2277.5112   
 4941  74.3092  2529(50)         2376.1882     2277.5896   
 4942  74.3242  2374(49)         2376.0183     2277.6682   
 4943  74.3392  2402(49)         2375.8403     2277.7468   
 4944  74.3542  2347(48)         2375.6426     2277.8254   
 4945  74.3692  2412(49)         2375.4045     2277.9041   
 4946  74.3842  2328(48)         2375.0728     2277.9824   
 4947  74.3992  2362(49)         2374.7095     2278.0610   
 4948  74.4142  2403(49)         2374.2578     2278.1396   
 4949  74.4292  2433(49)         2373.7017     2278.2183   
 4950  74.4442  2337(48)         2373.0313     2278.2966   
 4951  74.4592  2427(49)         2372.2461     2278.3752   
 4952  74.4742  2340(48)         2371.3452     2278.4539   
 4953  74.4892  2384(49)         2370.3376     2278.5325   
 4954  74.5042  2457(50)         2369.2302     2278.6108   
 4955  74.5192  2430(49)         2368.0415     2278.6895   
 4956  74.5342  2367(49)         2366.7634     2278.7681   
 4957  74.5492  2407(49)         2365.4705     2278.8467   
 4958  74.5642  2288(48)         2364.1567     2278.9253   
 4959  74.5792  2316(48)         2362.8474     2279.0037   
 4960  74.5942  2376(49)         2361.5571     2279.0823   
 4961  74.6092  2404(49)         2360.3069     2279.1609   
 4962  74.6242  2319(48)         2359.1055     2279.2395   
 4963  74.6392  2347(48)         2357.9497     2279.3181   
 4964  74.6542  2287(48)         2356.9097     2279.3965   
 4965  74.6692  2415(49)         2355.9380     2279.4751   
 4966  74.6842  2353(49)         2355.0688     2279.5537   
 4967  74.6992  2330(48)         2354.2993     2279.6323   
 4968  74.7142  2376(49)         2353.6196     2279.7107   
 4969  74.7292  2336(48)         2353.0344     2279.7893   
 4970  74.7442  2433(49)         2352.5420     2279.8679   
 4971  74.7592  2341(48)         2352.1392     2279.9465   
 4972  74.7742  2353(49)         2351.8296     2280.0249   
 4973  74.7892  2393(49)         2351.5940     2280.1035   
 4974  74.8042  2350(48)         2351.4495     2280.1821   
 4975  74.8192  2399(49)         2351.3630     2280.2607   
 4976  74.8342  2370(49)         2351.3438     2280.3394   
 4977  74.8492  2309(48)         2351.3743     2280.4177   
 4978  74.8642  2407(49)         2351.4771     2280.4963   
 4979  74.8792  2303(48)         2351.6345     2280.5750   
 4980  74.8942  2294(48)         2351.8586     2280.6536   
 4981  74.9092  2338(48)         2352.0806     2280.7319   
 4982  74.9242  2323(48)         2352.3721     2280.8105   
 4983  74.9392  2348(48)         2352.6763     2280.8892   
 4984  74.9542  2374(49)         2353.0354     2280.9678   
 4985  74.9692  2409(49)         2353.4175     2281.0464   
 4986  74.9842  2402(49)         2353.8669     2281.1248   
 4987  74.9992  2414(49)         2354.3560     2281.2034   
 4988  75.0142  2403(49)         2354.8865     2281.2820   
 4989  75.0292  2324(48)         2355.4624     2281.3606   
 4990  75.0442  2298(48)         2356.0723     2281.4392   
 4991  75.0592  2353(49)         2356.6875     2281.4846   
 4992  75.0742  2402(49)         2357.2168     2281.3979   
 4993  75.0892  2357(49)         2357.7737     2281.3113   
 4994  75.1042  2341(48)         2358.3628     2281.2246   
 4995  75.1192  2385(49)         2358.9851     2281.1377   
 4996  75.1342  2345(48)         2359.6250     2281.0510   
 4997  75.1492  2264(48)         2360.2817     2280.9644   
 4998  75.1642  2285(48)         2360.9517     2280.8777   
 4999  75.1792  2371(49)         2361.6279     2280.7910   
 5000  75.1942  2419(49)         2362.3052     2280.7043   
 5001  75.2092  2366(49)         2362.9846     2280.6174   
 5002  75.2242  2314(48)         2363.6440     2280.5308   
 5003  75.2392  2286(48)         2364.3110     2280.4441   
 5004  75.2542  2361(49)         2364.9714     2280.3574   
 5005  75.2692  2439(49)         2365.6270     2280.2708   
 5006  75.2842  2385(49)         2366.2810     2280.1841   
 5007  75.2992  2291(48)         2366.9106     2280.0974   
 5008  75.3142  2301(48)         2367.5808     2280.0105   
 5009  75.3292  2291(48)         2368.2485     2279.9241   
 5010  75.3442  2355(49)         2368.8872     2279.8372   
 5011  75.3592  2316(48)         2369.5122     2279.7505   
 5012  75.3742  2326(48)         2370.1389     2279.6638   
 5013  75.3892  2334(48)         2370.7205     2279.5771   
 5014  75.4042  2288(48)         2371.2632     2279.4902   
 5015  75.4192  2383(49)         2371.7593     2279.4036   
 5016  75.4342  2365(49)         2372.1853     2279.3169   
 5017  75.4492  2398(49)         2372.5317     2279.2302   
 5018  75.4642  2353(49)         2372.7905     2279.1436   
 5019  75.4792  2338(48)         2372.9390     2279.0569   
 5020  75.4942  2425(49)         2372.9731     2278.9700   
 5021  75.5092  2301(48)         2372.8911     2278.8833   
 5022  75.5242  2464(50)         2372.6819     2278.7969   
 5023  75.5392  2283(48)         2372.3538     2278.7100   
 5024  75.5542  2335(48)         2371.8792     2278.6233   
 5025  75.5692  2411(49)         2371.3125     2278.5366   
 5026  75.5842  2335(48)         2370.6426     2278.4500   
 5027  75.5992  2353(49)         2369.8813     2278.3633   
 5028  75.6142  2298(48)         2369.0403     2278.2764   
 5029  75.6292  2343(48)         2368.1333     2278.1897   
 5030  75.6442  2375(49)         2367.1667     2278.1030   
 5031  75.6592  2257(48)         2366.1746     2278.0164   
 5032  75.6742  2342(48)         2365.1575     2277.9297   
 5033  75.6892  2240(47)         2364.1287     2277.8430   
 5034  75.7042  2321(48)         2363.1035     2277.7563   
 5035  75.7192  2344(48)         2362.0818     2277.6694   
 5036  75.7342  2326(48)         2361.0967     2277.5828   
 5037  75.7492  2234(47)         2360.1331     2277.4961   
 5038  75.7642  2283(48)         2359.2136     2277.4094   
 5039  75.7792  2324(48)         2358.3518     2277.3228   
 5040  75.7942  2303(48)         2357.5293     2277.2361   
 5041  75.8092  2349(48)         2356.7400     2277.1492   
 5042  75.8242  2399(49)         2356.0347     2277.0625   
 5043  75.8392  2404(49)         2355.3931     2276.9758   
 5044  75.8542  2303(48)         2354.8169     2276.8892   
 5045  75.8692  2367(49)         2354.2820     2276.8025   
 5046  75.8842  2305(48)         2353.8416     2276.7158   
 5047  75.8992  2350(48)         2353.4749     2276.6292   
 5048  75.9142  2331(48)         2353.1758     2276.5422   
 5049  75.9292  2329(48)         2352.9385     2276.4556   
 5050  75.9442  2330(48)         2352.7705     2276.3689   
 5051  75.9592  2278(48)         2352.6699     2276.2822   
 5052  75.9742  2410(49)         2352.6228     2276.1956   
 5053  75.9892  2349(48)         2352.6392     2276.1089   
 5054  76.0042  2262(48)         2352.7065     2276.0220   
 5055  76.0192  2383(49)         2352.8274     2275.9353   
 5056  76.0342  2353(49)         2352.9988     2275.8486   
 5057  76.0492  2341(48)         2353.2178     2275.7620   
 5058  76.0642  2331(48)         2353.4827     2275.6753   
 5059  76.0792  2394(49)         2353.7903     2275.5886   
 5060  76.0942  2364(49)         2354.1401     2275.5017   
 5061  76.1092  2322(48)         2354.5488     2275.4150   
 5062  76.1242  2346(48)         2354.9736     2275.3284   
 5063  76.1392  2378(49)         2355.4338     2275.2417   
 5064  76.1542  2384(49)         2355.9277     2275.1550   
 5065  76.1692  2373(49)         2356.4473     2275.0684   
 5066  76.1842  2385(49)         2356.9995     2274.9817   
 5067  76.1992  2362(49)         2357.5789     2274.8948   
 5068  76.2142  2362(49)         2358.1843     2274.8081   
 5069  76.2292  2429(49)         2358.6438     2274.7214   
 5070  76.2442  2406(49)         2359.3047     2274.6348   
 5071  76.2592  2387(49)         2359.9639     2274.5481   
 5072  76.2742  2340(48)         2360.6550     2274.4614   
 5073  76.2892  2289(48)         2361.3828     2274.3745   
 5074  76.3042  2349(48)         2362.1333     2274.2878   
 5075  76.3192  2367(49)         2362.9219     2274.2012   
 5076  76.3342  2372(49)         2363.7141     2274.1145   
 5077  76.3492  2391(49)         2364.5205     2274.0278   
 5078  76.3642  2318(48)         2365.3394     2273.9412   
 5079  76.3792  2328(48)         2366.1621     2273.8545   
 5080  76.3942  2365(49)         2366.9797     2273.7678   
 5081  76.4092  2287(48)         2367.7969     2273.6809   
 5082  76.4242  2276(48)         2368.5740     2273.5942   
 5083  76.4392  2413(49)         2369.3142     2273.5076   
 5084  76.4542  2447(49)         2370.0059     2273.4209   
 5085  76.4692  2316(48)         2370.6143     2273.3342   
 5086  76.4842  2420(49)         2371.1792     2273.2473   
 5087  76.4992  2551(51)         2371.6707     2273.1606   
 5088  76.5142  2330(48)         2372.0835     2273.0740   
 5089  76.5292  2268(48)         2372.4167     2272.9873   
 5090  76.5442  2364(49)         2372.6724     2272.9006   
 5091  76.5592  2382(49)         2372.8574     2272.8140   
 5092  76.5742  2320(48)         2372.9790     2272.7273   
 5093  76.5892  2426(49)         2373.0469     2272.6406   
 5094  76.6042  2367(49)         2373.0759     2272.5537   
 5095  76.6192  2320(48)         2373.0823     2272.4670   
 5096  76.6342  2331(48)         2373.0825     2272.3804   
 5097  76.6492  2411(49)         2373.0947     2272.2937   
 5098  76.6642  2398(49)         2373.1372     2272.2070   
 5099  76.6792  2345(48)         2373.2266     2272.1204   
 5100  76.6942  2413(49)         2373.3811     2272.0334   
 5101  76.7092  2439(49)         2373.6165     2271.9468   
 5102  76.7242  2424(49)         2373.9426     2271.8601   
 5103  76.7392  2386(49)         2374.3833     2271.7734   
 5104  76.7542  2367(49)         2374.9404     2271.6868   
 5105  76.7692  2349(48)         2375.6260     2271.6001   
 5106  76.7842  2350(48)         2376.4500     2271.5134   
 5107  76.7992  2342(48)         2377.4146     2271.4265   
 5108  76.8142  2390(49)         2378.5173     2271.3398   
 5109  76.8292  2293(48)         2379.7708     2271.2532   
 5110  76.8442  2428(49)         2381.1689     2271.1665   
 5111  76.8592  2424(49)         2382.7024     2271.0798   
 5112  76.8742  2372(49)         2384.3767     2270.9932   
 5113  76.8892  2397(49)         2386.1541     2270.9063   
 5114  76.9042  2411(49)         2388.0364     2270.8196   
 5115  76.9192  2352(48)         2390.0056     2270.7329   
 5116  76.9342  2293(48)         2392.0291     2270.6462   
 5117  76.9492  2390(49)         2394.1060     2270.5596   
 5118  76.9642  2319(48)         2396.1978     2270.4729   
 5119  76.9792  2470(50)         2398.2849     2270.3862   
 5120  76.9942  2383(49)         2400.3386     2270.2993   
 5121  77.0092  2397(49)         2402.3086     2270.2126   
 5122  77.0242  2425(49)         2404.1624     2270.1260   
 5123  77.0392  2374(49)         2405.8887     2270.0393   
 5124  77.0542  2349(48)         2407.4602     2269.9526   
 5125  77.0692  2336(48)         2408.8540     2269.8660   
 5126  77.0842  2360(49)         2410.0544     2269.7791   
 5127  77.0992  2442(49)         2411.0527     2269.6924   
 5128  77.1142  2352(48)         2411.8555     2269.6057   
 5129  77.1292  2430(49)         2412.4604     2269.5190   
 5130  77.1442  2427(49)         2412.8193     2269.4324   
 5131  77.1592  2405(49)         2412.9670     2269.3457   
 5132  77.1742  2447(49)         2412.9087     2269.2590   
 5133  77.1892  2356(49)         2412.6511     2269.1721   
 5134  77.2042  2347(48)         2412.2051     2269.0857   
 5135  77.2192  2419(49)         2411.5791     2268.9988   
 5136  77.2342  2408(49)         2410.7881     2268.9121   
 5137  77.2492  2319(48)         2409.8464     2268.8254   
 5138  77.2642  2337(48)         2408.7705     2268.7388   
 5139  77.2792  2384(49)         2407.5793     2268.6519   
 5140  77.2942  2376(49)         2406.2935     2268.5652   
 5141  77.3092  2444(49)         2404.9473     2268.4785   
 5142  77.3242  2440(49)         2403.5388     2268.3918   
 5143  77.3392  2393(49)         2402.1013     2268.3052   
 5144  77.3542  2388(49)         2400.6543     2268.2185   
 5145  77.3692  2362(49)         2399.2197     2268.1316   
 5146  77.3842  2334(48)         2397.8135     2268.0449   
 5147  77.3992  2355(49)         2396.4575     2267.9585   
 5148  77.4142  2327(48)         2395.1633     2267.8716   
 5149  77.4292  2411(49)         2393.9387     2267.7849   
 5150  77.4442  2385(49)         2392.8030     2267.6982   
 5151  77.4592  2346(48)         2391.7656     2267.6116   
 5152  77.4742  2362(49)         2390.8088     2267.5249   
 5153  77.4892  2338(48)         2389.9204     2267.4380   
 5154  77.5042  2434(49)         2389.1592     2267.3513   
 5155  77.5192  2386(49)         2388.5020     2267.2646   
 5156  77.5342  2320(48)         2387.9348     2267.1780   
 5157  77.5492  2418(49)         2387.4697     2267.0913   
 5158  77.5642  2403(49)         2387.0938     2267.0046   
 5159  77.5792  2277(48)         2386.8059     2266.9180   
 5160  77.5942  2350(48)         2386.6013     2266.8311   
 5161  77.6092  2459(50)         2386.4763     2266.7444   
 5162  77.6242  2406(49)         2386.3931     2266.6577   
 5163  77.6392  2355(49)         2386.4126     2266.5710   
 5164  77.6542  2423(49)         2386.4893     2266.4844   
 5165  77.6692  2347(48)         2386.6338     2266.3977   
 5166  77.6842  2464(50)         2386.8025     2266.3108   
 5167  77.6992  2329(48)         2386.9976     2266.2241   
 5168  77.7142  2346(48)         2387.1865     2266.1375   
 5169  77.7292  2386(49)         2387.4131     2266.0508   
 5170  77.7442  2435(49)         2387.6257     2265.9641   
 5171  77.7592  2491(50)         2387.8142     2265.8774   
 5172  77.7742  2341(48)         2387.9763     2265.7908   
 5173  77.7892  2300(48)         2388.1008     2265.7039   
 5174  77.8042  2425(49)         2388.1833     2265.6172   
 5175  77.8192  2423(49)         2388.2178     2265.5305   
 5176  77.8342  2418(49)         2388.2061     2265.4438   
 5177  77.8492  2393(49)         2388.1528     2265.3572   
 5178  77.8642  2441(49)         2388.0632     2265.2705   
 5179  77.8792  2410(49)         2387.9448     2265.1836   
 5180  77.8942  2422(49)         2387.8062     2265.0969   
 5181  77.9092  2418(49)         2387.6555     2265.0103   
 5182  77.9242  2340(48)         2387.5007     2264.9236   
 5183  77.9392  2375(49)         2387.3501     2264.8369   
 5184  77.9542  2295(48)         2387.2063     2264.7502   
 5185  77.9692  2389(49)         2387.0735     2264.6633   
 5186  77.9842  2393(49)         2386.9583     2264.5767   
 5187  77.9992  2389(49)         2386.8523     2264.4900   
 5188  78.0142  2442(49)         2386.7576     2264.4033   
 5189  78.0292  2395(49)         2386.6733     2264.3167   
 5190  78.0442  2425(49)         2386.5969     2264.2300   
 5191  78.0592  2408(49)         2386.5381     2264.1433   
 5192  78.0742  2362(49)         2386.4744     2264.0564   
 5193  78.0892  2371(49)         2386.4148     2263.9697   
 5194  78.1042  2410(49)         2386.3608     2263.8831   
 5195  78.1192  2399(49)         2386.3140     2263.7964   
 5196  78.1342  2330(48)         2386.2764     2263.7097   
 5197  78.1492  2347(48)         2386.2500     2263.6230   
 5198  78.1642  2378(49)         2386.2373     2263.5361   
 5199  78.1792  2362(49)         2386.2395     2263.4495   
 5200  78.1942  2363(49)         2386.2576     2263.3628   
 5201  78.2092  2338(48)         2386.2920     2263.2761   
 5202  78.2242  2422(49)         2386.3376     2263.1895   
 5203  78.2392  2381(49)         2386.3887     2263.1028   
 5204  78.2542  2389(49)         2386.4434     2263.0161   
 5205  78.2692  2370(49)         2386.4795     2262.9292   
 5206  78.2842  2350(48)         2386.5107     2262.8425   
 5207  78.2992  2359(49)         2386.5078     2262.7559   
 5208  78.3142  2408(49)         2386.4658     2262.6692   
 5209  78.3292  2391(49)         2386.3748     2262.5825   
 5210  78.3442  2448(49)         2386.2190     2262.4958   
 5211  78.3592  2478(50)         2386.0054     2262.4089   
 5212  78.3742  2358(49)         2385.7273     2262.3223   
 5213  78.3892  2417(49)         2385.3760     2262.2356   
 5214  78.4042  2313(48)         2384.9441     2262.1489   
 5215  78.4192  2321(48)         2384.4705     2262.0623   
 5216  78.4342  2422(49)         2383.9341     2261.9756   
 5217  78.4492  2332(48)         2383.3584     2261.8889   
 5218  78.4642  2387(49)         2382.7495     2261.8022   
 5219  78.4792  2444(49)         2382.1260     2261.7153   
 5220  78.4942  2377(49)         2381.5149     2261.6287   
 5221  78.5092  2414(49)         2380.8965     2261.5420   
 5222  78.5242  2372(49)         2380.2388     2261.4553   
 5223  78.5392  2348(48)         2379.7153     2261.3687   
 5224  78.5542  2269(48)         2379.2517     2261.2820   
 5225  78.5692  2426(49)         2378.8569     2261.1951   
 5226  78.5842  2313(48)         2378.5422     2261.1084   
 5227  78.5992  2306(48)         2378.3030     2261.0217   
 5228  78.6142  2298(48)         2378.1438     2260.9351   
 5229  78.6292  2460(50)         2378.0620     2260.8484   
 5230  78.6442  2319(48)         2378.0542     2260.7617   
 5231  78.6592  2388(49)         2378.1162     2260.6750   
 5232  78.6742  2385(49)         2378.2166     2260.5881   
 5233  78.6892  2405(49)         2378.3569     2260.5015   
 5234  78.7042  2339(48)         2378.5210     2260.4148   
 5235  78.7192  2267(48)         2378.6919     2260.3281   
 5236  78.7342  2271(48)         2378.8198     2260.2415   
 5237  78.7492  2419(49)         2378.9558     2260.1548   
 5238  78.7642  2356(49)         2379.0491     2260.0679   
 5239  78.7792  2337(48)         2379.0869     2259.9812   
 5240  78.7942  2406(49)         2379.0583     2259.8945   
 5241  78.8092  2388(49)         2378.9497     2259.8079   
 5242  78.8242  2437(49)         2378.7546     2259.7212   
 5243  78.8392  2359(49)         2378.4680     2259.6345   
 5244  78.8542  2291(48)         2378.1011     2259.5479   
 5245  78.8692  2320(48)         2377.6262     2259.4609   
 5246  78.8842  2441(49)         2377.0608     2259.3743   
 5247  78.8992  2389(49)         2376.4111     2259.2876   
 5248  78.9142  2272(48)         2375.6814     2259.2009   
 5249  78.9292  2362(49)         2374.8875     2259.1143   
 5250  78.9442  2402(49)         2374.0442     2259.0276   
 5251  78.9592  2285(48)         2373.1531     2258.9407   
 5252  78.9742  2383(49)         2372.2317     2258.8540   
 5253  78.9892  2435(49)         2371.2957     2258.7673   
 5254  79.0042  2311(48)         2370.3660     2258.6807   
 5255  79.0192  2316(48)         2369.4302     2258.5940   
 5256  79.0342  2371(49)         2368.4890     2258.5073   
 5257  79.0492  2340(48)         2367.5930     2258.4207   
 5258  79.0642  2297(48)         2366.7278     2258.3337   
 5259  79.0792  2247(47)         2365.9004     2258.2473   
 5260  79.0942  2354(49)         2365.1082     2258.1604   
 5261  79.1092  2365(49)         2364.3545     2258.0737   
 5262  79.1242  2336(48)         2363.6375     2257.9871   
 5263  79.1392  2348(48)         2362.9543     2257.9004   
 5264  79.1542  2362(49)         2362.2959     2257.8135   
 5265  79.1692  2361(49)         2361.6597     2257.7268   
 5266  79.1842  2368(49)         2361.0376     2257.6401   
 5267  79.1992  2323(48)         2360.4260     2257.5535   
 5268  79.2142  2311(48)         2359.8059     2257.4668   
 5269  79.2292  2436(49)         2359.1914     2257.3801   
 5270  79.2442  2437(49)         2358.5759     2257.2932   
 5271  79.2592  2278(48)         2357.9460     2257.2065   
 5272  79.2742  2275(48)         2357.3230     2257.1201   
 5273  79.2892  2335(48)         2356.6523     2257.0332   
 5274  79.3042  2335(48)         2355.9961     2256.9465   
 5275  79.3192  2403(49)         2355.3340     2256.8599   
 5276  79.3342  2417(49)         2354.6704     2256.7732   
 5277  79.3492  2376(49)         2354.0088     2256.6865   
 5278  79.3642  2378(49)         2353.3574     2256.5996   
 5279  79.3792  2404(49)         2352.7207     2256.5129   
 5280  79.3942  2289(48)         2352.1033     2256.4263   
 5281  79.4092  2293(48)         2351.5093     2256.3396   
 5282  79.4242  2326(48)         2350.9421     2256.2529   
 5283  79.4392  2352(48)         2350.4028     2256.1663   
 5284  79.4542  2403(49)         2349.8914     2256.0796   
 5285  79.4692  2344(48)         2349.4106     2255.9927   
 5286  79.4842  2338(48)         2348.9568     2255.9060   
 5287  79.4992  2298(48)         2348.5217     2255.8193   
 5288  79.5142  2241(47)         2348.1072     2255.7327   
 5289  79.5292  2380(49)         2347.7085     2255.6460   
 5290  79.5442  2354(49)         2347.3184     2255.5593   
 5291  79.5592  2287(48)         2346.9338     2255.4724   
 5292  79.5742  2337(48)         2346.5500     2255.3857   
 5293  79.5892  2382(49)         2346.1643     2255.2991   
 5294  79.6042  2364(49)         2345.7739     2255.2124   
 5295  79.6192  2382(49)         2345.3779     2255.1257   
 5296  79.6342  2406(49)         2344.9761     2255.0391   
 5297  79.6492  2434(49)         2344.5693     2254.9524   
 5298  79.6642  2400(49)         2344.1597     2254.8655   
 5299  79.6792  2441(49)         2343.7490     2254.7788   
 5300  79.6942  2352(48)         2343.3413     2254.6921   
 5301  79.7092  2301(48)         2342.9399     2254.6055   
 5302  79.7242  2410(49)         2342.5547     2254.5188   
 5303  79.7392  2452(50)         2342.1777     2254.4321   
 5304  79.7542  2355(49)         2341.8176     2254.3452   
 5305  79.7692  2332(48)         2341.4788     2254.2585   
 5306  79.7842  2255(47)         2341.1631     2254.1719   
 5307  79.7992  2300(48)         2340.8655     2254.0852   
 5308  79.8142  2271(48)         2340.5901     2253.9985   
 5309  79.8292  2376(49)         2340.3352     2253.9119   
 5310  79.8442  2388(49)         2340.1016     2253.8250   
 5311  79.8592  2319(48)         2339.8848     2253.7383   
 5312  79.8742  2402(49)         2339.6802     2253.6516   
 5313  79.8892  2339(48)         2339.4900     2253.5649   
 5314  79.9042  2373(49)         2339.3071     2253.4783   
 5315  79.9192  2336(48)         2339.1316     2253.3916   
 5316  79.9342  2363(49)         2338.9626     2253.3049   
 5317  79.9492  2307(48)         2338.7971     2253.2180   
 5318  79.9642  2288(48)         2338.6355     2253.1313   
 5319  79.9792  2321(48)         2338.4788     2253.0447   
 5320  79.9942  2394(49)         2338.3008     2252.9580   
 5321  80.0092  2371(49)         2338.1560     2252.8713   
 5322  80.0242  2386(49)         2338.0217     2252.7847   
 5323  80.0392  2350(48)         2337.9011     2252.6978   
 5324  80.0542  2345(48)         2337.7913     2252.6111   
 5325  80.0692  2375(49)         2337.6184     2252.4507   
 5326  80.0842  2385(49)         2337.4578     2252.2788   
 5327  80.0992  2430(49)         2337.3374     2252.1072   
 5328  80.1142  2401(49)         2337.2219     2251.9353   
 5329  80.1292  2391(49)         2337.1321     2251.7634   
 5330  80.1442  2413(49)         2337.0686     2251.5918   
 5331  80.1592  2492(50)         2337.0320     2251.4199   
 5332  80.1742  2378(49)         2337.0225     2251.2480   
 5333  80.1892  2302(48)         2337.0254     2251.0762   
 5334  80.2042  2309(48)         2337.0657     2250.9045   
 5335  80.2192  2363(49)         2337.1284     2250.7327   
 5336  80.2342  2444(49)         2337.2114     2250.5608   
 5337  80.2492  2436(49)         2337.3169     2250.3889   
 5338  80.2642  2389(49)         2337.4338     2250.2173   
 5339  80.2792  2399(49)         2337.5676     2250.0454   
 5340  80.2942  2443(49)         2337.7119     2249.8735   
 5341  80.3092  2433(49)         2337.8623     2249.7017   
 5342  80.3242  2377(49)         2338.0364     2249.5300   
 5343  80.3392  2378(49)         2338.1982     2249.3582   
 5344  80.3542  2310(48)         2338.3508     2249.1863   
 5345  80.3692  2313(48)         2338.5205     2249.0144   
 5346  80.3842  2323(48)         2338.6870     2248.8425   
 5347  80.3992  2355(49)         2338.8467     2248.6709   
 5348  80.4142  2396(49)         2339.0005     2248.4990   
 5349  80.4292  2304(48)         2339.1257     2248.3271   
 5350  80.4442  2363(49)         2339.2305     2248.1555   
 5351  80.4592  2385(49)         2339.3022     2247.9836   
 5352  80.4742  2344(48)         2339.3247     2247.8118   
 5353  80.4892  2411(49)         2339.3035     2247.6401   
 5354  80.5042  2401(49)         2339.2285     2247.4683   
 5355  80.5192  2283(48)         2339.0908     2247.2964   
 5356  80.5342  2315(48)         2338.8867     2247.1245   
 5357  80.5492  2380(49)         2338.5952     2246.9529   
 5358  80.5642  2298(48)         2338.2549     2246.7810   
 5359  80.5792  2389(49)         2337.8523     2246.6094   
 5360  80.5942  2328(48)         2337.3879     2246.4373   
 5361  80.6092  2410(49)         2336.8767     2246.2654   
 5362  80.6242  2420(49)         2336.3218     2246.0938   
 5363  80.6392  2308(48)         2335.7344     2245.9219   
 5364  80.6542  2280(48)         2335.1250     2245.7500   
 5365  80.6692  2384(49)         2334.5046     2245.5784   
 5366  80.6842  2317(48)         2333.8826     2245.4065   
 5367  80.6992  2314(48)         2333.2690     2245.2346   
 5368  80.7142  2377(49)         2332.6719     2245.0630   
 5369  80.7292  2358(49)         2332.0867     2244.8911   
 5370  80.7442  2411(49)         2331.5215     2244.7192   
 5371  80.7592  2456(50)         2330.9846     2244.5474   
 5372  80.7742  2314(48)         2330.4651     2244.3757   
 5373  80.7892  2296(48)         2329.9639     2244.2039   
 5374  80.8042  2230(47)         2329.4814     2244.0320   
 5375  80.8192  2354(49)         2329.0085     2243.8601   
 5376  80.8342  2339(48)         2328.5400     2243.6885   
 5377  80.8492  2351(48)         2328.0969     2243.5166   
 5378  80.8642  2353(49)         2327.6665     2243.3447   
 5379  80.8792  2357(49)         2327.2366     2243.1729   
 5380  80.8942  2292(48)         2326.8101     2243.0012   
 5381  80.9092  2267(48)         2326.3909     2242.8293   
 5382  80.9242  2261(48)         2325.9702     2242.6575   
 5383  80.9392  2295(48)         2325.4978     2242.4856   
 5384  80.9542  2341(48)         2325.0640     2242.3140   
 5385  80.9692  2289(48)         2324.6216     2242.1421   
 5386  80.9842  2308(48)         2324.1541     2241.9702   
 5387  80.9992  2307(48)         2323.6843     2241.7983   
 5388  81.0142  2365(49)         2323.1958     2241.6267   
 5389  81.0292  2277(48)         2322.6821     2241.4548   
 5390  81.0442  2401(49)         2322.1279     2241.2830   
 5391  81.0592  2305(48)         2321.5562     2241.1113   
 5392  81.0742  2290(48)         2320.9517     2240.9395   
 5393  81.0892  2356(49)         2320.3154     2240.7676   
 5394  81.1042  2276(48)         2319.6399     2240.5957   
 5395  81.1192  2287(48)         2318.9307     2240.4238   
 5396  81.1342  2280(48)         2318.1965     2240.2522   
 5397  81.1492  2245(47)         2317.4219     2240.0806   
 5398  81.1642  2372(49)         2316.6362     2239.9084   
 5399  81.1792  2299(48)         2315.8325     2239.7368   
 5400  81.1942  2343(48)         2315.0293     2239.5649   
 5401  81.2092  2319(48)         2314.2283     2239.3931   
 5402  81.2242  2344(48)         2313.4370     2239.2212   
 5403  81.2392  2280(48)         2312.6633     2239.0496   
 5404  81.2542  2327(48)         2311.9133     2238.8777   
 5405  81.2692  2401(49)         2311.1931     2238.7058   
 5406  81.2842  2292(48)         2310.5071     2238.5342   
 5407  81.2992  2357(49)         2309.8584     2238.3623   
 5408  81.3142  2297(48)         2309.2490     2238.1904   
 5409  81.3292  2387(49)         2308.6809     2238.0188   
 5410  81.3442  2241(47)         2308.1531     2237.8469   
 5411  81.3592  2280(48)         2307.6626     2237.6750   
 5412  81.3742  2304(48)         2307.2085     2237.5032   
 5413  81.3892  2290(48)         2306.7888     2237.3313   
 5414  81.4042  2269(48)         2306.3892     2237.1597   
 5415  81.4192  2288(48)         2306.0242     2236.9878   
 5416  81.4342  2277(48)         2305.6812     2236.8159   
 5417  81.4492  2321(48)         2305.3586     2236.6440   
 5418  81.4642  2266(48)         2305.0496     2236.4724   
 5419  81.4792  2339(48)         2304.7522     2236.3005   
 5420  81.4942  2211(47)         2304.4602     2236.1287   
 5421  81.5092  2218(47)         2304.1775     2235.9568   
 5422  81.5242  2270(48)         2303.9065     2235.7852   
 5423  81.5392  2298(48)         2303.6428     2235.6133   
 5424  81.5542  2309(48)         2303.3906     2235.4414   
 5425  81.5692  2293(48)         2303.0964     2235.2695   
 5426  81.5842  2334(48)         2302.8589     2235.0979   
 5427  81.5992  2312(48)         2302.6323     2234.9260   
 5428  81.6142  2309(48)         2302.4187     2234.7542   
 5429  81.6292  2318(48)         2302.2200     2234.5825   
 5430  81.6442  2317(48)         2302.0374     2234.4106   
 5431  81.6592  2277(48)         2301.8721     2234.2388   
 5432  81.6742  2238(47)         2301.7253     2234.0669   
 5433  81.6892  2316(48)         2301.5999     2233.8950   
 5434  81.7042  2310(48)         2301.4919     2233.7234   
 5435  81.7192  2282(48)         2301.4036     2233.5518   
 5436  81.7342  2318(48)         2301.3340     2233.3796   
 5437  81.7492  2262(48)         2301.2681     2233.2080   
 5438  81.7642  2320(48)         2301.2378     2233.0361   
 5439  81.7792  2323(48)         2301.2441     2232.8643   
 5440  81.7942  2338(48)         2301.2168     2232.6924   
 5441  81.8092  2341(48)         2301.2349     2232.5208   
 5442  81.8242  2322(48)         2301.2690     2232.3489   
 5443  81.8392  2359(49)         2301.3201     2232.1770   
 5444  81.8542  2375(49)         2301.3892     2232.0054   
 5445  81.8692  2209(47)         2301.4758     2231.8333   
 5446  81.8842  2343(48)         2301.5837     2231.6616   
 5447  81.8992  2277(48)         2301.7114     2231.4900   
 5448  81.9142  2280(48)         2301.8599     2231.3179   
 5449  81.9292  2304(48)         2302.0374     2231.1462   
 5450  81.9442  2254(47)         2302.2400     2230.9744   
 5451  81.9592  2311(48)         2302.4656     2230.8025   
 5452  81.9742  2323(48)         2302.7209     2230.6309   
 5453  81.9892  2281(48)         2303.0063     2230.4590   
 5454  82.0042  2308(48)         2303.3196     2230.2871   
 5455  82.0192  2380(49)         2303.6619     2230.1152   
 5456  82.0342  2269(48)         2304.0342     2229.9436   
 5457  82.0492  2313(48)         2304.4409     2229.7717   
 5458  82.0642  2394(49)         2304.8770     2229.5999   
 5459  82.0792  2338(48)         2305.3359     2229.4282   
 5460  82.0942  2258(48)         2305.8257     2229.2563   
 5461  82.1092  2330(48)         2306.3428     2229.0845   
 5462  82.1242  2385(49)         2306.8865     2228.9126   
 5463  82.1392  2343(48)         2307.4590     2228.7407   
 5464  82.1542  2298(48)         2308.0544     2228.5691   
 5465  82.1692  2284(48)         2308.6719     2228.3972   
 5466  82.1842  2398(49)         2309.3088     2228.2253   
 5467  82.1992  2361(49)         2309.9607     2228.0537   
 5468  82.2142  2296(48)         2310.6223     2227.8818   
 5469  82.2292  2400(49)         2311.2886     2227.7100   
 5470  82.2442  2284(48)         2311.9456     2227.5381   
 5471  82.2592  2384(49)         2312.5857     2227.3662   
 5472  82.2742  2332(48)         2313.1975     2227.1946   
 5473  82.2892  2272(48)         2313.7610     2227.0227   
 5474  82.3042  2307(48)         2314.2776     2226.8508   
 5475  82.3192  2310(48)         2314.7280     2226.6792   
 5476  82.3342  2278(48)         2315.0732     2226.5073   
 5477  82.3492  2260(48)         2315.3323     2226.3354   
 5478  82.3642  2386(49)         2315.4812     2226.1636   
 5479  82.3792  2397(49)         2315.5039     2225.9919   
 5480  82.3942  2303(48)         2315.3887     2225.8201   
 5481  82.4092  2339(48)         2315.1279     2225.6482   
 5482  82.4242  2274(48)         2314.7163     2225.4766   
 5483  82.4392  2344(48)         2314.1519     2225.3044   
 5484  82.4542  2345(48)         2313.4124     2225.1331   
 5485  82.4692  2301(48)         2312.5544     2224.9612   
 5486  82.4842  2312(48)         2311.5613     2224.7891   
 5487  82.4992  2308(48)         2310.4482     2224.6174   
 5488  82.5142  2286(48)         2309.2185     2224.4456   
 5489  82.5292  2279(48)         2307.9116     2224.2737   
 5490  82.5442  2299(48)         2306.5361     2224.1021   
 5491  82.5592  2337(48)         2305.1111     2223.9302   
 5492  82.5742  2248(47)         2303.6560     2223.7583   
 5493  82.5892  2290(48)         2302.1895     2223.5864   
 5494  82.6042  2313(48)         2300.7283     2223.4148   
 5495  82.6192  2231(47)         2299.2891     2223.2429   
 5496  82.6342  2292(48)         2297.8860     2223.0710   
 5497  82.6492  2343(48)         2296.5317     2222.8994   
 5498  82.6642  2330(48)         2295.2305     2222.7275   
 5499  82.6792  2365(49)         2293.9934     2222.5557   
 5500  82.6942  2281(48)         2292.8223     2222.3838   
 5501  82.7092  2265(48)         2291.7246     2222.2119   
 5502  82.7242  2280(48)         2290.6956     2222.0403   
 5503  82.7392  2271(48)         2289.6909     2221.8684   
 5504  82.7542  2326(48)         2288.8057     2221.6965   
 5505  82.7692  2242(47)         2287.9797     2221.5249   
 5506  82.7842  2246(47)         2287.2251     2221.3530   
 5507  82.7992  2348(48)         2286.5251     2221.1812   
 5508  82.8142  2266(48)         2285.8774     2221.0093   
 5509  82.8292  2307(48)         2285.2771     2220.8376   
 5510  82.8442  2256(47)         2284.6787     2220.6658   
 5511  82.8592  2169(47)         2284.1550     2220.4939   
 5512  82.8742  2294(48)         2283.6621     2220.3220   
 5513  82.8892  2312(48)         2283.1958     2220.1504   
 5514  82.9042  2205(47)         2282.7568     2219.9785   
 5515  82.9192  2300(48)         2282.3306     2219.8066   
 5516  82.9342  2300(48)         2281.9204     2219.6348   
 5517  82.9492  2259(48)         2281.5222     2219.4631   
 5518  82.9642  2288(48)         2281.1328     2219.2913   
 5519  82.9792  2331(48)         2280.7505     2219.1194   
 5520  82.9942  2298(48)         2280.3745     2218.9475   
 5521  83.0092  2334(48)         2280.0032     2218.7759   
 5522  83.0242  2369(49)         2279.6355     2218.6042   
 5523  83.0392  2277(48)         2279.2717     2218.4321   
 5524  83.0542  2303(48)         2278.9050     2218.2603   
 5525  83.0692  2285(48)         2278.5378     2218.0886   
 5526  83.0842  2287(48)         2278.1697     2217.9167   
 5527  83.0992  2328(48)         2277.7988     2217.7449   
 5528  83.1142  2260(48)         2277.4167     2217.5732   
 5529  83.1292  2376(49)         2277.0413     2217.4014   
 5530  83.1442  2319(48)         2276.6636     2217.2295   
 5531  83.1592  2208(47)         2276.2847     2217.0576   
 5532  83.1742  2251(47)         2275.9023     2216.8860   
 5533  83.1892  2272(48)         2275.5210     2216.7141   
 5534  83.2042  2248(47)         2275.1428     2216.5425   
 5535  83.2192  2277(48)         2274.7520     2216.3706   
 5536  83.2342  2269(48)         2274.3845     2216.1987   
 5537  83.2492  2230(47)         2274.0217     2216.0269   
 5538  83.2642  2290(48)         2273.6660     2215.8550   
 5539  83.2792  2280(48)         2273.3179     2215.6831   
 5540  83.2942  2266(48)         2272.9795     2215.5115   
 5541  83.3092  2268(48)         2272.6504     2215.3396   
 5542  83.3242  2256(47)         2272.3308     2215.1677   
 5543  83.3392  2244(47)         2272.0212     2214.9961   
 5544  83.3542  2286(48)         2271.7207     2214.8242   
 5545  83.3692  2294(48)         2271.4297     2214.6523   
 5546  83.3842  2231(47)         2271.1477     2214.4805   
 5547  83.3992  2237(47)         2270.8748     2214.3088   
 5548  83.4142  2263(48)         2270.6099     2214.1370   
 5549  83.4292  2263(48)         2270.3555     2213.9651   
 5550  83.4442  2279(48)         2270.1084     2213.7932   
 5551  83.4592  2247(47)         2269.8711     2213.6216   
 5552  83.4742  2281(48)         2269.6260     2213.4497   
 5553  83.4892  2270(48)         2269.3877     2213.2778   
 5554  83.5042  2255(47)         2269.1982     2213.1060   
 5555  83.5192  2269(48)         2269.0107     2212.9343   
 5556  83.5342  2216(47)         2268.8398     2212.7625   
 5557  83.5492  2274(48)         2268.6709     2212.5906   
 5558  83.5642  2249(47)         2268.5408     2212.4187   
 5559  83.5792  2261(48)         2268.4333     2212.2471   
 5560  83.5942  2363(49)         2268.3516     2212.0754   
 5561  83.6092  2266(48)         2268.2964     2211.9033   
 5562  83.6242  2276(48)         2268.2703     2211.7314   
 5563  83.6392  2287(48)         2268.2837     2211.5598   
 5564  83.6542  2223(47)         2268.3245     2211.3879   
 5565  83.6692  2247(47)         2268.3911     2211.2161   
 5566  83.6842  2228(47)         2268.4893     2211.0444   
 5567  83.6992  2202(47)         2268.6182     2210.8726   
 5568  83.7142  2300(48)         2268.7766     2210.7007   
 5569  83.7292  2314(48)         2268.9636     2210.5288   
 5570  83.7442  2279(48)         2269.1775     2210.3569   
 5571  83.7592  2310(48)         2269.4319     2210.1853   
 5572  83.7742  2236(47)         2269.6936     2210.0137   
 5573  83.7892  2251(47)         2269.9758     2209.8416   
 5574  83.8042  2267(48)         2270.2742     2209.6699   
 5575  83.8192  2277(48)         2270.5840     2209.4980   
 5576  83.8342  2349(48)         2270.9041     2209.3262   
 5577  83.8492  2257(48)         2271.2327     2209.1543   
 5578  83.8642  2301(48)         2271.5676     2208.9827   
 5579  83.8792  2302(48)         2271.9194     2208.8108   
 5580  83.8942  2189(47)         2272.2620     2208.6389   
 5581  83.9092  2299(48)         2272.6062     2208.4673   
 5582  83.9242  2227(47)         2272.9507     2208.2954   
 5583  83.9392  2264(48)         2273.2954     2208.1235   
 5584  83.9542  2218(47)         2273.6394     2207.9519   
 5585  83.9692  2276(48)         2273.9814     2207.7800   
 5586  83.9842  2163(47)         2274.3218     2207.6082   
 5587  83.9992  2228(47)         2274.6580     2207.4363   
 5588  84.0142  2265(48)         2274.9902     2207.2644   
 5589  84.0292  2251(47)         2275.3220     2207.0928   
 5590  84.0442  2377(49)         2275.6421     2206.9209   
 5591  84.0592  2248(47)         2275.9539     2206.7490   
 5592  84.0742  2192(47)         2276.2563     2206.5771   
 5593  84.0892  2335(48)         2276.5483     2206.4055   
 5594  84.1042  2375(49)         2276.8293     2206.2336   
 5595  84.1192  2309(48)         2277.0916     2206.0618   
 5596  84.1342  2264(48)         2277.3506     2205.8899   
 5597  84.1492  2227(47)         2277.5945     2205.7183   
 5598  84.1642  2345(48)         2277.8259     2205.5464   
 5599  84.1792  2330(48)         2278.0457     2205.3745   
 5600  84.1942  2213(47)         2278.2717     2205.2026   
 5601  84.2092  2223(47)         2278.4668     2205.0310   
 5602  84.2242  2276(48)         2278.6523     2204.8591   
 5603  84.2392  2237(47)         2278.8215     2204.6873   
 5604  84.2542  2163(47)         2278.9766     2204.5156   
 5605  84.2692  2260(48)         2279.1165     2204.3438   
 5606  84.2842  2279(48)         2279.2419     2204.1719   
 5607  84.2992  2177(47)         2279.3425     2204.0000   
 5608  84.3142  2232(47)         2279.4238     2203.8281   
 5609  84.3292  2299(48)         2279.4729     2203.6565   
 5610  84.3442  2322(48)         2279.4968     2203.4849   
 5611  84.3592  2277(48)         2279.4890     2203.3127   
 5612  84.3742  2208(47)         2279.4492     2203.1411   
 5613  84.3892  2229(47)         2279.3799     2202.9692   
 5614  84.4042  2265(48)         2279.2622     2202.7974   
 5615  84.4192  2261(48)         2279.0793     2202.6255   
 5616  84.4342  2204(47)         2278.8801     2202.4539   
 5617  84.4492  2256(47)         2278.6392     2202.2820   
 5618  84.4642  2257(48)         2278.3572     2202.1101   
 5619  84.4792  2231(47)         2278.0354     2201.9385   
 5620  84.4942  2193(47)         2277.6755     2201.7666   
 5621  84.5092  2174(47)         2277.2820     2201.5947   
 5622  84.5242  2247(47)         2276.8560     2201.4231   
 5623  84.5392  2250(47)         2276.4016     2201.2510   
 5624  84.5542  2223(47)         2275.9265     2201.0793   
 5625  84.5692  2264(48)         2275.4309     2200.9075   
 5626  84.5842  2300(48)         2274.9072     2200.7356   
 5627  84.5992  2240(47)         2274.3901     2200.5640   
 5628  84.6142  2216(47)         2273.8694     2200.3921   
 5629  84.6292  2234(47)         2273.3503     2200.2202   
 5630  84.6442  2250(47)         2272.8379     2200.0483   
 5631  84.6592  2258(48)         2272.3374     2199.8767   
 5632  84.6742  2350(48)         2271.8525     2199.7048   
 5633  84.6892  2288(48)         2271.3882     2199.5330   
 5634  84.7042  2199(47)         2270.9509     2199.3613   
 5635  84.7192  2282(48)         2270.5388     2199.1895   
 5636  84.7342  2187(47)         2270.1326     2199.0176   
 5637  84.7492  2214(47)         2269.7847     2198.8457   
 5638  84.7642  2282(48)         2269.4517     2198.6738   
 5639  84.7792  2261(48)         2269.1755     2198.5022   
 5640  84.7942  2219(47)         2268.9341     2198.3303   
 5641  84.8092  2293(48)         2268.7317     2198.1584   
 5642  84.8242  2256(47)         2268.5654     2197.9868   
 5643  84.8392  2141(46)         2268.4326     2197.8149   
 5644  84.8542  2192(47)         2268.3308     2197.6431   
 5645  84.8692  2268(48)         2268.2568     2197.4712   
 5646  84.8842  2215(47)         2268.2061     2197.2993   
 5647  84.8992  2156(46)         2268.1548     2197.1277   
 5648  84.9142  2209(47)         2268.1353     2196.9558   
 5649  84.9292  2227(47)         2268.1223     2196.7839   
 5650  84.9442  2246(47)         2268.1113     2196.6123   
 5651  84.9592  2225(47)         2268.0928     2196.4404   
 5652  84.9742  2195(47)         2268.0620     2196.2686   
 5653  84.9892  2256(47)         2268.0115     2196.0967   
 5654  85.0042  2264(48)         2267.9392     2195.9250   
 5655  85.0192  2270(48)         2267.8340     2195.7532   
 5656  85.0342  2356(49)         2267.6873     2195.5813   
 5657  85.0492  2240(47)         2267.5098     2195.4097   
 5658  85.0642  2310(48)         2267.1350     2195.0798   
 5659  85.0792  2317(48)         2266.5798     2194.6130   
 5660  85.0942  2245(47)         2265.9851     2194.1455   
 5661  85.1092  2248(47)         2265.3511     2193.6777   
 5662  85.1242  2228(47)         2264.6919     2193.2102   
 5663  85.1392  2174(47)         2263.9917     2192.7429   
 5664  85.1542  2271(48)         2263.2654     2192.2754   
 5665  85.1692  2174(47)         2262.5188     2191.8081   
 5666  85.1842  2316(48)         2261.7607     2191.3406   
 5667  85.1992  2288(48)         2260.9966     2190.8733   
 5668  85.2142  2273(48)         2260.2349     2190.4058   
 5669  85.2292  2210(47)         2259.4822     2189.9385   
 5670  85.2442  2270(48)         2258.7424     2189.4707   
 5671  85.2592  2154(46)         2258.0247     2189.0034   
 5672  85.2742  2276(48)         2257.3318     2188.5364   
 5673  85.2892  2309(48)         2256.6670     2188.0686   
 5674  85.3042  2326(48)         2256.0330     2187.6011   
 5675  85.3192  2334(48)         2255.4309     2187.1338   
 5676  85.3342  2372(49)         2254.8599     2186.6663   
 5677  85.3492  2294(48)         2254.3184     2186.1990   
 5678  85.3642  2273(48)         2253.8030     2185.7314   
 5679  85.3792  2233(47)         2253.3145     2185.2642   
 5680  85.3942  2231(47)         2252.8381     2184.7966   
 5681  85.4092  2375(49)         2252.3699     2184.3293   
 5682  85.4242  2213(47)         2251.9155     2183.8618   
 5683  85.4392  2244(47)         2251.4595     2183.3943   
 5684  85.4542  2310(48)         2250.9966     2182.9272   
 5685  85.4692  2264(48)         2250.5210     2182.4597   
 5686  85.4842  2236(47)         2250.0322     2181.9919   
 5687  85.4992  2252(47)         2249.5254     2181.5244   
 5688  85.5142  2308(48)         2248.9985     2181.0571   
 5689  85.5292  2265(48)         2248.4504     2180.5896   
 5690  85.5442  2239(47)         2247.8821     2180.1223   
 5691  85.5592  2299(48)         2247.2944     2179.6548   
 5692  85.5742  2308(48)         2246.6904     2179.1875   
 5693  85.5892  2310(48)         2246.0776     2178.7200   
 5694  85.6042  2345(48)         2245.4500     2178.2527   
 5695  85.6192  2375(49)         2244.8159     2177.7849   
 5696  85.6342  2273(48)         2244.1677     2177.3176   
 5697  85.6492  2373(49)         2243.5420     2176.8506   
 5698  85.6642  2277(48)         2242.9258     2176.3828   
 5699  85.6792  2227(47)         2242.3232     2175.9153   
 5700  85.6942  2268(48)         2241.7378     2175.4480   
 5701  85.7092  2200(47)         2241.1746     2174.9805   
 5702  85.7242  2342(48)         2240.6370     2174.5132   
 5703  85.7392  2291(48)         2240.1270     2174.0457   
 5704  85.7542  2239(47)         2239.6494     2173.5784   
 5705  85.7692  2356(49)         2239.2058     2173.1108   
 5706  85.7842  2278(48)         2238.7964     2172.6436   
 5707  85.7992  2255(47)         2238.4233     2172.1760   
 5708  85.8142  2241(47)         2238.0869     2171.7085   
 5709  85.8292  2277(48)         2237.7864     2171.2415   
 5710  85.8442  2328(48)         2237.5286     2170.7739   
 5711  85.8592  2223(47)         2237.3096     2170.3062   
 5712  85.8742  2396(49)         2237.1333     2169.8386   
 5713  85.8892  2329(48)         2236.9878     2169.3713   
 5714  85.9042  2272(48)         2236.8865     2168.9038   
 5715  85.9192  2315(48)         2236.8242     2168.4365   
 5716  85.9342  2294(48)         2236.7998     2167.9690   
 5717  85.9492  2307(48)         2236.7917     2167.5017   
 5718  85.9642  2277(48)         2236.8396     2167.0342   
 5719  85.9792  2286(48)         2236.9131     2166.5669   
 5720  85.9942  2267(48)         2237.0271     2166.0991   
 5721  86.0092  2209(47)         2237.1711     2165.6318   
 5722  86.0242  2289(48)         2237.3418     2165.1648   
 5723  86.0392  2315(48)         2237.5469     2164.6970   
 5724  86.0542  2240(47)         2237.7454     2164.2295   
 5725  86.0692  2234(47)         2237.9790     2163.7622   
 5726  86.0842  2226(47)         2238.2263     2163.2947   
 5727  86.0992  2199(47)         2238.4873     2162.8274   
 5728  86.1142  2282(48)         2238.7500     2162.3599   
 5729  86.1292  2329(48)         2239.0139     2161.8926   
 5730  86.1442  2270(48)         2239.2739     2161.4250   
 5731  86.1592  2263(48)         2239.5264     2160.9578   
 5732  86.1742  2255(47)         2239.7659     2160.4902   
 5733  86.1892  2320(48)         2239.9885     2160.0227   
 5734  86.2042  2249(47)         2240.1880     2159.5557   
 5735  86.2192  2272(48)         2240.3608     2159.0884   
 5736  86.2342  2233(47)         2240.5027     2158.6204   
 5737  86.2492  2181(47)         2240.6091     2158.1531   
 5738  86.2642  2198(47)         2240.6743     2157.6855   
 5739  86.2792  2279(48)         2240.7036     2157.2180   
 5740  86.2942  2311(48)         2240.6838     2156.7507   
 5741  86.3092  2216(47)         2240.6155     2156.2832   
 5742  86.3242  2208(47)         2240.5020     2155.8159   
 5743  86.3392  2156(46)         2240.3386     2155.3484   
 5744  86.3542  2191(47)         2240.1277     2154.8811   
 5745  86.3692  2283(48)         2239.8662     2154.4133   
 5746  86.3842  2297(48)         2239.5649     2153.9460   
 5747  86.3992  2299(48)         2239.2229     2153.4790   
 5748  86.4142  2240(47)         2238.8435     2153.0112   
 5749  86.4292  2287(48)         2238.4321     2152.5437   
 5750  86.4442  2247(47)         2237.9944     2152.0764   
 5751  86.4592  2173(47)         2237.5361     2151.6089   
 5752  86.4742  2245(47)         2237.0618     2151.1416   
 5753  86.4892  2278(48)         2236.5786     2150.6741   
 5754  86.5042  2275(48)         2236.0840     2150.2068   
 5755  86.5192  2288(48)         2235.6001     2149.7393   
 5756  86.5342  2256(47)         2235.1248     2149.2720   
 5757  86.5492  2221(47)         2234.6636     2148.8044   
 5758  86.5642  2190(47)         2234.2263     2148.3369   
 5759  86.5792  2215(47)         2233.8086     2147.8699   
 5760  86.5942  2150(46)         2233.4072     2147.4026   
 5761  86.6092  2180(47)         2233.0493     2146.9346   
 5762  86.6242  2224(47)         2232.6689     2146.4673   
 5763  86.6392  2162(46)         2232.3867     2145.9998   
 5764  86.6542  2216(47)         2232.1460     2145.5325   
 5765  86.6692  2288(48)         2231.9443     2145.0649   
 5766  86.6842  2256(47)         2231.7942     2144.5974   
 5767  86.6992  2259(48)         2231.6826     2144.1301   
 5768  86.7142  2223(47)         2231.6270     2143.6626   
 5769  86.7292  2284(48)         2231.6179     2143.1953   
 5770  86.7442  2212(47)         2231.6533     2142.7275   
 5771  86.7592  2263(48)         2231.7310     2142.2603   
 5772  86.7742  2257(48)         2231.8506     2141.7932   
 5773  86.7892  2221(47)         2231.9978     2141.3254   
 5774  86.8042  2214(47)         2232.1528     2140.8579   
 5775  86.8192  2201(47)         2232.3423     2140.3906   
 5776  86.8342  2201(47)         2232.4956     2139.9231   
 5777  86.8492  2154(46)         2232.6912     2139.4558   
 5778  86.8642  2206(47)         2232.8733     2138.9883   
 5779  86.8792  2149(46)         2233.0317     2138.5210   
 5780  86.8942  2190(47)         2233.1438     2138.0535   
 5781  86.9092  2175(47)         2233.2131     2137.5862   
 5782  86.9242  2190(47)         2233.2314     2137.1187   
 5783  86.9392  2226(47)         2233.1846     2136.6511   
 5784  86.9542  2131(46)         2233.0637     2136.1841   
 5785  86.9692  2215(47)         2232.8633     2135.7168   
 5786  86.9842  2142(46)         2232.5779     2135.2488   
 5787  86.9992  2183(47)         2232.2063     2134.7815   
 5788  87.0142  2214(47)         2231.7419     2134.3140   
 5789  87.0292  2230(47)         2231.1980     2133.8467   
 5790  87.0442  2162(46)         2230.5647     2133.3792   
 5791  87.0592  2235(47)         2229.8611     2132.9119   
 5792  87.0742  2227(47)         2229.0857     2132.4443   
 5793  87.0892  2203(47)         2228.2456     2131.9771   
 5794  87.1042  2264(48)         2227.3489     2131.5095   
 5795  87.1192  2250(47)         2226.4038     2131.0417   
 5796  87.1342  2272(48)         2225.4182     2130.5745   
 5797  87.1492  2178(47)         2224.4016     2130.1074   
 5798  87.1642  2176(47)         2223.3594     2129.6396   
 5799  87.1792  2215(47)         2222.3035     2129.1721   
 5800  87.1942  2174(47)         2221.2390     2128.7048   
 5801  87.2092  2220(47)         2220.1782     2128.2373   
 5802  87.2242  2155(46)         2219.1028     2127.7700   
 5803  87.2392  2096(46)         2218.0588     2127.3025   
 5804  87.2542  2181(47)         2217.0400     2126.8352   
 5805  87.2692  2156(46)         2216.0449     2126.3677   
 5806  87.2842  2166(47)         2215.0771     2125.9004   
 5807  87.2992  2148(46)         2214.1438     2125.4329   
 5808  87.3142  2295(48)         2213.2483     2124.9653   
 5809  87.3292  2231(47)         2212.3948     2124.4983   
 5810  87.3442  2221(47)         2211.5828     2124.0310   
 5811  87.3592  2314(48)         2210.8130     2123.5630   
 5812  87.3742  2192(47)         2210.0869     2123.0957   
 5813  87.3892  2214(47)         2209.4028     2122.6282   
 5814  87.4042  2221(47)         2208.7593     2122.1609   
 5815  87.4192  2151(46)         2208.1511     2121.6934   
 5816  87.4342  2293(48)         2207.5796     2121.2261   
 5817  87.4492  2226(47)         2207.0342     2120.7585   
 5818  87.4642  2109(46)         2206.5137     2120.2913   
 5819  87.4792  2117(46)         2205.9937     2119.8237   
 5820  87.4942  2189(47)         2205.5090     2119.3562   
 5821  87.5092  2224(47)         2205.0327     2118.8887   
 5822  87.5242  2157(46)         2204.5457     2118.4216   
 5823  87.5392  2238(47)         2204.0813     2117.9539   
 5824  87.5542  2192(47)         2203.6082     2117.4863   
 5825  87.5692  2244(47)         2203.1394     2117.0190   
 5826  87.5842  2270(48)         2202.6638     2116.5515   
 5827  87.5992  2173(47)         2202.1799     2116.0842   
 5828  87.6142  2243(47)         2201.6863     2115.6167   
 5829  87.6292  2207(47)         2201.1824     2115.1494   
 5830  87.6442  2248(47)         2200.6643     2114.6819   
 5831  87.6592  2267(48)         2200.1362     2114.2146   
 5832  87.6742  2266(48)         2199.5977     2113.7471   
 5833  87.6892  2269(48)         2199.0498     2113.2795   
 5834  87.7042  2207(47)         2198.4856     2112.8125   
 5835  87.7192  2140(46)         2197.9150     2112.3452   
 5836  87.7342  2171(47)         2197.3291     2111.8772   
 5837  87.7492  2247(47)         2196.7336     2111.4099   
 5838  87.7642  2244(47)         2196.1311     2110.9424   
 5839  87.7792  2210(47)         2195.5044     2110.4751   
 5840  87.7942  2210(47)         2194.8899     2110.0076   
 5841  87.8092  2190(47)         2194.2712     2109.5403   
 5842  87.8242  2210(47)         2193.6492     2109.0728   
 5843  87.8392  2233(47)         2193.0254     2108.6055   
 5844  87.8542  2207(47)         2192.4006     2108.1379   
 5845  87.8692  2242(47)         2191.7788     2107.6704   
 5846  87.8842  2196(47)         2191.1367     2107.2029   
 5847  87.8992  2207(47)         2190.5161     2106.7358   
 5848  87.9142  2164(47)         2189.8916     2106.2681   
 5849  87.9292  2314(48)         2189.2822     2105.8005   
 5850  87.9442  2169(47)         2188.6726     2105.3333   
 5851  87.9592  2209(47)         2188.0664     2104.8657   
 5852  87.9742  2159(46)         2187.4644     2104.3984   
 5853  87.9892  2230(47)         2186.8672     2103.9309   
 5854  88.0042  2189(47)         2186.2759     2103.4636   
 5855  88.0192  2232(47)         2185.6838     2102.9961   
 5856  88.0342  2265(48)         2185.1047     2102.5288   
 5857  88.0492  2222(47)         2184.5322     2102.0613   
 5858  88.0642  2130(46)         2183.9636     2101.5938   
 5859  88.0792  2240(47)         2183.4082     2101.1267   
 5860  88.0942  2201(47)         2182.8567     2100.6594   
 5861  88.1092  2248(47)         2182.3091     2100.1914   
 5862  88.1242  2211(47)         2181.7681     2099.7241   
 5863  88.1392  2266(48)         2181.2051     2099.2566   
 5864  88.1542  2216(47)         2180.6675     2098.7893   
 5865  88.1692  2146(46)         2180.1287     2098.3218   
 5866  88.1842  2111(46)         2179.5867     2097.8545   
 5867  88.1992  2142(46)         2179.0327     2097.3870   
 5868  88.2142  2089(46)         2178.4766     2096.9197   
 5869  88.2292  2212(47)         2177.8975     2096.4521   
 5870  88.2442  2250(47)         2177.3169     2095.9846   
 5871  88.2592  2194(47)         2176.7188     2095.5171   
 5872  88.2742  2148(46)         2176.0857     2095.0503   
 5873  88.2892  2213(47)         2175.4497     2094.5823   
 5874  88.3042  2301(48)         2174.7979     2094.1150   
 5875  88.3192  2207(47)         2174.1223     2093.6475   
 5876  88.3342  2178(47)         2173.4294     2093.1802   
 5877  88.3492  2167(47)         2172.7158     2092.7126   
 5878  88.3642  2150(46)         2171.9851     2092.2451   
 5879  88.3792  2191(47)         2171.2412     2091.7778   
 5880  88.3942  2155(46)         2170.4841     2091.3103   
 5881  88.4092  2219(47)         2169.7190     2090.8430   
 5882  88.4242  2305(48)         2168.9399     2090.3755   
 5883  88.4392  2204(47)         2168.1704     2089.9080   
 5884  88.4542  2167(47)         2167.4067     2089.4409   
 5885  88.4692  2179(47)         2166.6541     2088.9736   
 5886  88.4842  2163(47)         2165.9136     2088.5056   
 5887  88.4992  2224(47)         2165.1919     2088.0383   
 5888  88.5142  2265(48)         2164.4973     2087.5708   
 5889  88.5292  2223(47)         2163.8267     2087.1035   
 5890  88.5442  2215(47)         2163.1892     2086.6360   
 5891  88.5592  2231(47)         2162.5869     2086.1687   
 5892  88.5742  2146(46)         2162.0237     2085.7012   
 5893  88.5892  2170(47)         2161.5098     2085.2339   
 5894  88.6042  2201(47)         2161.0352     2084.7664   
 5895  88.6192  2178(47)         2160.5850     2084.2988   
 5896  88.6342  2096(46)         2160.2109     2083.8313   
 5897  88.6492  2099(46)         2159.8875     2083.3645   
 5898  88.6642  2213(47)         2159.6006     2082.8965   
 5899  88.6792  2220(47)         2159.3816     2082.4292   
 5900  88.6942  2110(46)         2159.2153     2081.9617   
 5901  88.7092  2161(46)         2159.1030     2081.4944   
 5902  88.7242  2212(47)         2159.0383     2081.0269   
 5903  88.7392  2114(46)         2159.0229     2080.5596   
 5904  88.7542  2186(47)         2159.0540     2080.0920   
 5905  88.7692  2236(47)         2159.1284     2079.6245   
 5906  88.7842  2092(46)         2159.1968     2079.1572   
 5907  88.7992  2153(46)         2159.3474     2078.6897   
 5908  88.8142  2114(46)         2159.5298     2078.2222   
 5909  88.8292  2096(46)         2159.7390     2077.7551   
 5910  88.8442  2155(46)         2159.9692     2077.2878   
 5911  88.8592  2158(46)         2160.2195     2076.8198   
 5912  88.8742  2243(47)         2160.4807     2076.3525   
 5913  88.8892  2136(46)         2160.7424     2075.8850   
 5914  88.9042  2179(47)         2161.0042     2075.4177   
 5915  88.9192  2161(46)         2161.2598     2074.9502   
 5916  88.9342  2096(46)         2161.5024     2074.4829   
 5917  88.9492  2155(46)         2161.7373     2074.0154   
 5918  88.9642  2162(46)         2161.9392     2073.5481   
 5919  88.9792  2168(47)         2162.1274     2073.0806   
 5920  88.9942  2134(46)         2162.2891     2072.6130   
 5921  89.0092  2144(46)         2162.4197     2072.1455   
 5922  89.0242  2209(47)         2162.5168     2071.6787   
 5923  89.0392  2180(47)         2162.5774     2071.2107   
 5924  89.0542  2174(47)         2162.5972     2070.7434   
 5925  89.0692  2238(47)         2162.5730     2070.2759   
 5926  89.0842  2192(47)         2162.4990     2069.8086   
 5927  89.0992  2176(47)         2162.3792     2069.3411   
 5928  89.1142  2152(46)         2162.2065     2068.8738   
 5929  89.1292  2168(47)         2161.9783     2068.4063   
 5930  89.1442  2176(47)         2161.6851     2067.9390   
 5931  89.1592  2217(47)         2161.3376     2067.4714   
 5932  89.1742  2165(47)         2160.9216     2067.0039   
 5933  89.1892  2092(46)         2160.4434     2066.5364   
 5934  89.2042  2229(47)         2159.9058     2066.0693   
 5935  89.2192  2155(46)         2159.2976     2065.6021   
 5936  89.2342  2079(46)         2158.6208     2065.1340   
 5937  89.2492  2150(46)         2157.8752     2064.6667   
 5938  89.2642  2103(46)         2157.0679     2064.1992   
 5939  89.2792  2112(46)         2156.1846     2063.7319   
 5940  89.2942  2149(46)         2155.2556     2063.2644   
 5941  89.3092  2151(46)         2154.2664     2062.7971   
 5942  89.3242  2089(46)         2153.2380     2062.3296   
 5943  89.3392  2121(46)         2152.1577     2061.8623   
 5944  89.3542  2161(46)         2151.0447     2061.3948   
 5945  89.3692  2150(46)         2149.9019     2060.9272   
 5946  89.3842  2135(46)         2148.7375     2060.4597   
 5947  89.3992  2092(46)         2147.5608     2059.9929   
 5948  89.4142  2052(45)         2146.3767     2059.5249   
 5949  89.4292  2069(45)         2145.1970     2059.0576   
 5950  89.4442  2117(46)         2144.0225     2058.5901   
 5951  89.4592  2111(46)         2142.8621     2058.1228   
 5952  89.4742  2156(46)         2141.7214     2057.6553   
 5953  89.4892  2145(46)         2140.6018     2057.1880   
 5954  89.5042  2156(46)         2139.5149     2056.7205   
 5955  89.5192  2173(47)         2138.4602     2056.2532   
 5956  89.5342  2166(47)         2137.4397     2055.7856   
 5957  89.5492  2164(47)         2136.4553     2055.3184   
 5958  89.5642  2136(46)         2135.5032     2054.8506   
 5959  89.5792  2096(46)         2134.5945     2054.3835   
 5960  89.5942  2112(46)         2133.7227     2053.9163   
 5961  89.6092  2096(46)         2132.8872     2053.4482   
 5962  89.6242  2067(45)         2132.0898     2052.9810   
 5963  89.6392  2018(45)         2131.3140     2052.5134   
 5964  89.6542  2108(46)         2130.5864     2052.0461   
 5965  89.6692  2050(45)         2129.8933     2051.5786   
 5966  89.6842  2062(45)         2129.2307     2051.1113   
 5967  89.6992  2117(46)         2128.5972     2050.6438   
 5968  89.7142  2054(45)         2127.9814     2050.1765   
 5969  89.7292  2179(47)         2127.4043     2049.7090   
 5970  89.7442  2194(47)         2126.8474     2049.2415   
 5971  89.7592  2166(47)         2126.3115     2048.7739   
 5972  89.7742  2114(46)         2125.7947     2048.3071   
 5973  89.7892  2083(46)         2125.2869     2047.8392   
 5974  89.8042  2193(47)         2124.7991     2047.3717   
 5975  89.8192  2099(46)         2124.3223     2046.9043   
 5976  89.8342  2136(46)         2123.8506     2046.4369   
 5977  89.8492  2122(46)         2123.3826     2045.9695   
 5978  89.8642  2090(46)         2122.9175     2045.5021   
 5979  89.8792  2045(45)         2122.4453     2045.0347   
 5980  89.8942  2158(46)         2121.9653     2044.5673   
 5981  89.9092  2100(46)         2121.4731     2044.0999   
 5982  89.9242  2094(46)         2120.9648     2043.6324   
 5983  89.9392  2170(47)         2120.4358     2043.1648   
 5984  89.9542  2208(47)         2119.8772     2042.6979   
 5985  89.9692  2157(46)         2119.2952     2042.2305   
 5986  89.9842  2092(46)         2118.6804     2041.7626   
 5987  89.9992  2049(45)         2118.0278     2041.2952   
 5988  90.0142  2046(45)         2117.3408     2040.8278   
 5989  90.0292  2132(46)         2116.6147     2040.3604   
 5990  90.0442  2102(46)         2040.1421     2040.1421   
_pd_proc_number_of_points  5666
 
loop_             
   _refln_index_h      
   _refln_index_k      
   _refln_index_l
   _refln_mult            
   _pd_refln_phase_id    
   _refln_observed_status  
   _refln_F_squared_meas  
   _refln_F_squared_calc  
   _refln_phase_calc    
   _refln_d_spacing     
  1  0  0 2 1 o    2915.4597   2887.9639 180.26 12.33456
  0  0  2 2 1 o    1300.5454   1320.5348 179.92  8.74894
 -1  0  2 2 1 o    671.6462   639.6791 180.32  7.44057
  1  0  2 2 1 o    1607.1443   1601.0498 180.22  6.86616
  2  0  0 2 1 o    813.2787   773.4035 179.92  6.16728
  0  1  1 4 1 o     75.2389   110.6119 179.62  5.56713
  1  1  0 4 1 o    1119.2001   977.5636 180.16  5.30206
 -2  0  2 2 1 o    298.5448   285.7601 179.77  5.25537
 -1  1  1 4 1 o    1560.4672   1646.8988 359.99  5.12645
  1  1  1 4 1 o    8323.5342   8347.0996 180.14  5.02358
  0  1  2 4 1 o   18688.6230  18534.0352 180.12  4.87580
  2  0  2 2 1 o   26067.9961  25996.8262  0.12  4.85046
 -1  1  2 4 1 o    276.8395   326.7176  0.42  4.60961
  1  1  2 4 1 o    758.9313   625.5950  0.19  4.46274
  0  0  4 2 1 o    3606.4666   3510.9106 180.06  4.37447
  2  1  0 4 1 o   17293.1445  17396.3555  0.12  4.25279
 -1  0  4 2 1 o    308.9632   316.3664 180.15  4.23783
 -2  1  1 4 1 o    3205.2869   3223.9854  0.15  4.18918
  0  1  3 4 1 o    1821.2974   1802.4377  0.13  4.13823
  3  0  0 2 1 o     27.5021    25.0369 359.69  4.11152
  2  1  1 4 1 o     15.3199    12.3896  0.66  4.07803
  1  0  4 2 1 o    2981.3484   3087.9375 180.11  4.01678
 -1  1  3 4 1 o    4309.4214   4251.2319 180.12  3.99663
 -2  1  2 4 1 o    115.2366   121.0313 359.54  3.91611
  1  1  3 4 1 o    1731.8342   1794.3438  0.09  3.85390
 -3  0  2 2 1 o    1912.7737   1984.0955 180.14  3.84909
  2  1  2 4 1 o     40.2679    39.6544 180.14  3.73969
 -2  0  4 2 1 o    4521.7295   4296.9214 180.12  3.72028
  3  0  2 2 1 o    683.8833   853.1331  0.13  3.60509
 -2  1  3 4 1 o    4303.1021   4235.4146  0.12  3.53636
  0  1  4 4 1 o    696.1063   676.5273 180.26  3.50808
 -1  1  4 4 1 o    1866.4393   1743.0396  0.27  3.43642
  2  0  4 2 1 o    346.9969   324.0356 359.99  3.43308
  3  1  0 4 1 o    812.7598   882.2712 180.17  3.36804
 -3  1  1 4 1 o    4332.5708   4449.4082 180.14  3.35089
  2  1  3 4 1 o     21.8435    22.4181 359.78  3.34434
  1  1  4 4 1 o     10.0927    11.6560  0.65  3.31536
  3  1  1 4 1 o    356.6446   492.0051 180.08  3.26542
 -3  1  2 4 1 o    657.2493   459.7643  0.33  3.21918
 -2  1  4 4 1 o    4820.7251   4391.5957 180.22  3.14268
 -3  0  4 2 1 o     3.9884    3.6918 178.39  3.13163
  4  0  0 2 1 o    279.4436   318.9673 180.26  3.08364
  3  1  2 4 1 o    1172.9973   1399.2026  0.08  3.07231
 -3  1  3 4 1 o    2190.0811   2053.5940  0.11  3.00876
  0  1  5 4 1 o    150.0812   141.0357  0.01  3.00622
 -4  0  2 2 1 o    371.6297   370.1695 180.11  2.98897
 -1  1  5 4 1 o     11.0955    12.8261  0.73  2.97103
  2  1  4 4 1 o    1913.9204   2291.7429 180.11  2.96375
  0  2  0 2 1 o     33.2591    27.2080 180.87  2.93614
  0  0  6 2 1 o    374.0634   334.5727 180.17  2.91631
  0  2  1 4 1 o    1098.2089   1078.6595 180.18  2.89565
 -1  0  6 2 1 o    363.8490   356.7666  0.31  2.89364
  3  0  4 2 1 o    1273.3705   1189.3475  0.23  2.87647
  1  1  5 4 1 o    1088.0516   1022.8225  0.15  2.87289
  1  2  0 4 1 o    1572.7679   1566.7312  0.20  2.85633
  4  0  2 2 1 o     7.9695    7.2683 358.07  2.83379
  3  1  3 4 1 o    511.6395   466.5894  0.20  2.83258
 -1  2  1 4 1 o    700.3605   641.4445  0.30  2.82787
  1  2  1 4 1 o    119.7490   114.3276  0.28  2.81024
  1  0  6 2 1 o    616.0627   565.2168  0.13  2.78558
  0  2  2 4 1 o    367.7644   341.0532 180.32  2.78357
 -2  1  5 4 1 o    1625.7042   1508.5476 180.17  2.78346
 -3  1  4 4 1 o    2932.8135   2859.8044  0.24  2.76325
 -1  2  2 4 1 o     19.5125    15.6342 179.51  2.73118
  4  1  0 4 1 o     41.1252    32.7399 180.35  2.73011
 -4  1  1 4 1 o     0.0203    0.0161  9.17  2.72892
 -2  0  6 2 1 o     68.2176    54.0514 180.83  2.72747
  1  2  2 4 1 o    115.6321   110.5075 179.84  2.69966
  4  1  1 4 1 o     68.5722    62.8548  0.14  2.66710
 -4  1  2 4 1 o    1290.3481   1204.0608 180.16  2.66376
  2  2  0 4 1 o    863.8020   915.1851 180.17  2.65103
 -2  2  1 4 1 o    166.6033   146.8934 180.38  2.63541
  2  1  5 4 1 o     3.0073    2.5217 180.94  2.62781
 -4  0  4 2 1 o    117.6133    98.6348 180.35  2.62768
  0  2  3 4 1 o    768.4794   660.4215 180.30  2.62258
  0  1  6 4 1 o     65.9860    64.7436 359.85  2.61195
  2  2  1 4 1 o    139.9809   148.0276 180.25  2.60706
 -1  1  6 4 1 o    410.6945   471.2872  0.36  2.59562
 -1  2  3 4 1 o    139.8530   168.6177  0.64  2.58541
  3  1  4 4 1 o    602.4203   737.8313 180.26  2.58321
 -2  2  2 4 1 o    331.8332   342.5953  0.11  2.56322
  2  0  6 2 1 o    3182.2305   3089.9209 180.19  2.55391
  4  1  2 4 1 o    1507.5726   1470.9420  0.15  2.55216
 -4  1  3 4 1 o    580.7260   581.7169 180.11  2.54730
  1  2  3 4 1 o     38.2958    38.7674  0.80  2.54554
  1  1  6 4 1 o    408.0183   367.3118 180.16  2.51677
 -3  1  5 4 1 o     39.5117    35.7611 179.60  2.51577
  2  2  2 4 1 o    1251.3871   1178.9520 180.17  2.51179
 -3  0  6 2 1 o    2534.6426   2545.6975  0.28  2.48019
 -2  1  6 4 1 o     13.2082    13.2677 181.42  2.47367
  5  0  0 2 1 o    1967.2017   2157.4614  0.19  2.46691
 -2  2  3 4 1 o    4320.3823   4990.8496 180.24  2.44733
  0  2  4 4 1 o    126.0231   146.7741 180.28  2.43790
 -5  0  2 2 1 o    1199.0797   1350.4095 180.14  2.42883
  4  0  4 2 1 o    1332.3673   1444.8928 180.27  2.42523
 -1  2  4 4 1 o    461.0254   404.8420  0.22  2.41347
  4  1  3 4 1 o    113.8021    86.9921 180.61  2.40420
 -4  1  4 4 1 o     20.1617    15.1955 359.18  2.39850
  3  2  0 4 1 o     17.8461    14.7596  0.05  2.38941
 -3  2  1 4 1 o    711.2737   622.5343 180.04  2.38327
  2  2  3 4 1 o     2.3475    2.0720 180.27  2.38091
  1  2  4 4 1 o     5.5474    4.6855 179.42  2.37038
  3  2  1 4 1 o     2.7854    2.1768 179.61  2.35193
  3  1  5 4 1 o     65.4978    51.8843 179.83  2.34652
  2  1  6 4 1 o    132.2632   105.3792  0.49  2.34200
 -3  2  2 4 1 o     31.9918    25.5313 180.26  2.33447
  5  0  2 2 1 o    183.6391   155.9218 179.63  2.32334
 -2  2  4 4 1 o    2777.2546   2561.4636 180.13  2.30480
  0  1  7 4 1 o     47.6791    44.0357 180.29  2.29999
 -1  1  7 4 1 o     30.6775    27.4489  0.50  2.29355
  3  0  6 2 1 o     83.4491    72.3053  0.24  2.28872
 -3  1  6 4 1 o    179.8110   153.0054  0.48  2.28476
 -5  1  1 4 1 o     79.7224    68.5661  0.17  2.27832
  3  2  2 4 1 o    1153.3009   1005.1061  0.16  2.27661
  5  1  0 4 1 o    145.4350   129.4921  0.47  2.27437
 -3  2  3 4 1 o    4338.4482   4690.9277  0.24  2.25039
  0  2  5 4 1 o    461.3435   498.2901 180.31  2.24932
 -5  1  2 4 1 o     20.9673    21.9715 180.13  2.24443
  4  1  4 4 1 o    352.8181   359.0965  0.31  2.24158
 -4  1  5 4 1 o    3222.8162   3158.8982 180.18  2.23565
 -1  2  5 4 1 o    1324.6241   1296.9041  0.34  2.23447
  5  1  1 4 1 o    147.5398   144.5325  0.33  2.23316
 -5  0  4 2 1 o    632.7831   621.2959  0.25  2.23141
  2  2  4 4 1 o     3.3396    3.2792 359.52  2.23137
  1  1  7 4 1 o    692.6377   681.3087 180.16  2.22983
 -4  0  6 2 1 o     21.6403    19.5496 358.49  2.21483
 -2  1  7 4 1 o    5180.8306   4708.0747 180.21  2.21236
  1  2  5 4 1 o    325.7431   340.6326  0.16  2.19181
  0  0  8 2 1 o    226.5445   236.3895 180.06  2.18723
 -1  0  8 2 1 o    695.5269   721.1935  0.30  2.18579
 -5  1  3 4 1 o     0.0159    0.0158 188.84  2.17748
  3  2  3 4 1 o    281.0317   276.4201 180.08  2.17375
  5  1  2 4 1 o    488.1718   468.8730 180.08  2.16040
 -2  2  5 4 1 o    4229.9697   4262.4702 180.25  2.15131
 -3  2  4 4 1 o    984.9531   1050.7151 180.21  2.14194
  3  1  6 4 1 o    583.7697   624.2744 180.36  2.13248
  4  2  0 4 1 o    1302.6996   1391.2904  0.22  2.12640
 -4  2  1 4 1 o    1031.1339   1103.2131 180.14  2.12583
  1  0  8 2 1 o    1036.0648   1122.6968 180.23  2.12286
 -2  0  8 2 1 o    218.2346   239.8705 359.83  2.11891
  2  1  7 4 1 o    993.5740   1060.0398 180.15  2.10189
  4  2  1 4 1 o    234.0863   242.7652 359.99  2.09621
 -4  2  2 4 1 o    461.8011   473.2184 180.08  2.09459
 -5  1  4 4 1 o     6.5963    6.1357  0.36  2.08589
  4  1  5 4 1 o     67.7907    60.0601 359.69  2.07811
 -3  1  7 4 1 o    1295.5397   1147.9429  0.27  2.07765
  2  2  5 4 1 o    201.4429   178.6052 180.03  2.07698
  5  0  4 2 1 o    597.2569   532.4033  0.55  2.07470
 -4  1  6 4 1 o    192.9125   173.5977 359.90  2.07233
  0  2  6 4 1 o     65.0173    59.4588 180.43  2.06912
  5  1  3 4 1 o    269.2673   251.1128  0.37  2.06494
 -1  2  6 4 1 o     13.7781    12.9704  0.46  2.06097
  6  0  0 2 1 o     34.0643    32.1042 180.77  2.05576
  3  2  4 4 1 o    499.9981   471.0565 180.20  2.05474
  0  1  8 4 1 o     14.5087    13.6375  0.31  2.04967
 -1  1  8 4 1 o    425.6798   399.9210  0.20  2.04849
 -6  0  2 2 1 o    971.6260   898.3137 180.10  2.04022
  4  2  2 4 1 o    106.4227    98.1145  0.34  2.03902
 -4  2  3 4 1 o    1697.0074   1553.1364 180.24  2.03653
  4  0  6 2 1 o    172.2554   155.9841 180.36  2.03432
  1  2  6 4 1 o     31.4793    26.4173  0.78  2.02083
 -3  2  5 4 1 o    854.3652   718.2801  0.37  2.02031
  2  0  8 2 1 o    1803.4631   1700.4990  0.26  2.00839
 -3  0  8 2 1 o    822.5290   818.9249  0.39  2.00283
 -2  2  6 4 1 o    4541.1313   4570.3359  0.19  1.99831
  1  1  8 4 1 o    100.2321   100.1989 180.37  1.99641
 -2  1  8 4 1 o    190.2529   185.6902  0.10  1.99313
 -5  1  5 4 1 o    209.5948   185.5560  0.19  1.97916
 -5  0  6 2 1 o    412.3370   403.8165  0.49  1.96766
  6  0  2 2 1 o    886.2780   906.4296 180.44  1.96444
  4  2  3 4 1 o    1046.0297   1119.7013 180.17  1.96115
 -4  2  4 4 1 o    6835.3091   7592.9453  0.19  1.95805
  5  1  4 4 1 o    710.3893   801.9576  0.13  1.95620
 -6  1  1 4 1 o    132.9070   150.5646  0.16  1.94564
  0  3  1 4 1 o    3910.9258   4420.7251 180.26  1.94529
  3  1  7 4 1 o    459.4448   512.5094  0.17  1.94358
  6  1  0 4 1 o    649.7284   698.9147 180.38  1.94030
  1  3  0 4 1 o     0.0548    0.0545 174.79  1.93323
  3  2  5 4 1 o    218.5329   214.7718 180.45  1.92946
 -6  1  2 4 1 o    398.2127   391.2104  0.38  1.92722
  2  2  6 4 1 o    165.9505   163.0493 360.00  1.92695
 -6  0  4 2 1 o     63.6084    62.5862  0.29  1.92454
 -1  3  1 4 1 o    1045.6610   1029.0049  0.35  1.92434
  4  1  6 4 1 o    345.6964   340.7588 179.88  1.92224
  1  3  1 4 1 o    234.8010   232.1253  0.58  1.91875
 -4  1  7 4 1 o    424.6719   419.7129 359.90  1.91684
  6  1  1 4 1 o    3288.3818   3162.8625 180.20  1.91176
  0  3  2 4 1 o    165.8665   156.7063 180.29  1.91020
  0  2  7 4 1 o    112.7109    97.2673 180.27  1.90334
  2  1  8 4 1 o    1665.6260   1399.5967  0.32  1.90032
 -1  2  7 4 1 o    288.7187   241.5038  0.31  1.89969
 -3  1  8 4 1 o     1.9736    1.6106 179.15  1.89561
 -3  2  6 4 1 o     20.9734    17.0357 359.43  1.89469
 -1  3  2 4 1 o    258.0282   207.9421  0.20  1.89301
 -5  2  1 4 1 o     1.2653    1.0114 357.67  1.89101
  5  2  0 4 1 o    489.4993   388.4583 180.30  1.88875
 -6  1  3 4 1 o     45.7527    36.1702  0.29  1.88697
  1  3  2 4 1 o     25.9287    20.5717  0.79  1.88242
 -5  2  2 4 1 o    256.7360   217.0746 180.40  1.87149
  4  2  4 4 1 o    2545.7019   2174.6484 180.13  1.86985
  3  0  8 2 1 o     59.7686    51.9377 180.50  1.86638
 -4  2  5 4 1 o    985.0447   855.9119  0.02  1.86640
 -5  1  6 4 1 o     39.4468    34.3707  0.33  1.86571
  2  3  0 4 1 o     3.9016    3.3995 181.76  1.86571
  5  2  1 4 1 o    527.0976   460.6098  0.36  1.86494
  1  2  7 4 1 o    500.6598   440.7061 180.34  1.86300
  6  1  2 4 1 o     36.7014    32.3115 359.51  1.86296
 -2  3  1 4 1 o     13.2893    11.8355 181.30  1.86024
 -4  0  8 2 1 o    1612.6747   1436.9030 180.40  1.86014
  0  3  3 4 1 o     6.6358    6.0609 181.90  1.85571
 -2  2  7 4 1 o    795.8686   741.0120  0.05  1.85278
  2  3  1 4 1 o    1747.7764   1654.3700 180.27  1.85019
 -1  1  9 4 1 o     5.2031    4.9976 179.68  1.84729
  0  1  9 4 1 o    154.6039   149.4923 180.12  1.84568
 -1  3  3 4 1 o     28.0852    27.5278  0.85  1.84240
  5  1  5 4 1 o    1011.2956   991.8481  0.33  1.84224
 -2  3  2 4 1 o     22.1408    22.1791 180.29  1.83432
 -5  2  3 4 1 o     0.7219    0.7291 179.95  1.83215
 -6  1  4 4 1 o    527.6075   541.9663  0.24  1.82883
  1  3  3 4 1 o    1123.0946   1158.8444  0.28  1.82781
  5  2  2 4 1 o    152.7885   159.2121 180.32  1.82194
  2  3  2 4 1 o     4.0879    4.2435 358.26  1.81519
  5  0  6 2 1 o    2166.9529   2252.2468  0.29  1.80919
 -2  1  9 4 1 o    249.0677   258.9255  0.07  1.80871
  3  2  6 4 1 o     34.2135    35.6585 180.06  1.80510
  1  1  9 4 1 o     49.5637    51.7310 180.48  1.80419
  6  0  4 2 1 o    333.4453   349.1201 180.56  1.80254
  6  1  3 4 1 o     65.3595    69.0440 180.63  1.79842
 -2  3  3 4 1 o    130.4451   144.1358 180.24  1.79041
  0  3  4 4 1 o    1015.2775   1136.3113 180.23  1.78671
  2  2  7 4 1 o    719.9222   806.2321  0.38  1.78643
  3  1  8 4 1 o    2008.2527   2250.9385 180.30  1.77870
  4  1  7 4 1 o     17.2637    19.3514 359.88  1.77823
 -1  3  4 4 1 o     49.0874    55.0348 179.96  1.77702
 -5  2  4 4 1 o    128.6596   144.2548 180.35  1.77658
 -4  1  8 4 1 o    535.3858   599.5081 180.12  1.77330
  4  2  5 4 1 o    1649.4478   1840.8168  0.27  1.77176
 -3  2  7 4 1 o     17.9452    20.0073  0.47  1.77148
 -4  2  6 4 1 o    182.5975   199.4262 180.00  1.76818
  3  3  0 4 1 o    353.2755   383.2349  0.31  1.76735
 -3  3  1 4 1 o     3.8259    4.0705 179.42  1.76486
  2  3  3 4 1 o     12.9723    13.7043 180.34  1.76390
  5  2  3 4 1 o    219.0288   230.8247  0.27  1.76358
  7  0  0 2 1 o    154.5628   160.9003 180.12  1.76208
  1  3  4 4 1 o    739.6640   751.9042  0.27  1.75961
 -6  1  5 4 1 o    565.9816   564.5128  0.20  1.75775
 -7  0  2 2 1 o     38.7822    38.2259 359.88  1.75651
  0  2  8 4 1 o     30.3296    29.3645 180.46  1.75404
 -1  2  8 4 1 o     89.5021    86.3889  0.24  1.75330
 -1  0 10 2 1 o    436.7107   421.4904 180.28  1.75328
  3  3  1 4 1 o    188.4271   181.4088 180.20  1.75202
 -5  1  7 4 1 o     9.5151    9.1602 179.27  1.75194
 -6  0  6 2 1 o     8.7890    8.4606 359.60  1.75179
  0  0 10 2 1 o    1887.7804   1821.4209  0.28  1.74979
 -3  3  2 4 1 o    217.9625   212.4895  0.10  1.74477
 -3  1  9 4 1 o    405.8822   399.0069  0.38  1.73695
 -2  3  4 4 1 o    821.1647   806.6810  0.11  1.73228
  2  1  9 4 1 o    299.2813   293.2148  0.33  1.73029
  5  1  6 4 1 o    154.2532   150.8127 180.62  1.72899
  6  1  4 4 1 o    405.6636   394.5951  0.15  1.72319
 -2  0 10 2 1 o     9.7934    9.5365 181.05  1.72220
  1  2  8 4 1 o    619.9876   606.0965  0.32  1.72031
  3  3  2 4 1 o    578.9804   566.1483  0.32  1.72021
 -2  2  8 4 1 o    150.6153   148.0508  0.28  1.71821
  4  0  8 2 1 o    208.6090   206.0456 180.21  1.71654
  1  0 10 2 1 o     0.5438    0.5497 190.51  1.71233
 -5  0  8 2 1 o    2328.8545   2406.9851  0.34  1.71030
 -5  2  5 4 1 o    452.4302   474.0743  0.26  1.70924
 -3  3  3 4 1 o    1813.1858   1910.4137  0.20  1.70882
  0  3  5 4 1 o    162.2230   171.9569  0.14  1.70835
 -1  3  5 4 1 o     9.8025    10.9260 359.89  1.70181
  2  3  4 4 1 o     8.4257    9.4045 359.13  1.70044
  7  0  2 2 1 o    4422.7402   4932.7329  0.28  1.69967
  5  2  4 4 1 o     70.5178    76.4545 180.50  1.69438
 -7  1  1 4 1 o     18.6860    20.0627  0.00  1.69315
  7  1  0 4 1 o    973.9969   1003.0264  0.41  1.68773
 -6  2  1 4 1 o    261.0516   268.3307  0.53  1.68751
  3  2  7 4 1 o    224.3655   228.0141 180.61  1.68617
 -7  0  4 2 1 o     48.2262    48.4208 180.90  1.68482
  6  2  0 4 1 o    483.5481   481.8700  0.27  1.68402
 -7  1  2 4 1 o     58.3660    57.4921 180.86  1.68284
  1  3  5 4 1 o    256.6415   252.5414  0.20  1.68274
 -1  1 10 4 1 o    245.5108   235.0867 180.14  1.68000
 -6  1  6 4 1 o    261.7646   247.8050 180.12  1.67869
  0  1 10 4 1 o    501.1135   468.4721  0.20  1.67692
 -6  2  2 4 1 o    108.6027   100.7261  0.37  1.67544
  3  3  3 4 1 o    592.0939   547.0742 180.28  1.67453
  4  2  6 4 1 o     27.2229    25.0135  0.57  1.67217
 -4  2  7 4 1 o    246.3840   227.6173  0.11  1.66861
  7  1  1 4 1 o    293.7608   273.3618 180.09  1.66703
  6  2  1 4 1 o     75.9856    71.3715 180.77  1.66526
 -2  3  5 4 1 o    2196.1628   2073.1079  0.25  1.66420
 -3  0 10 2 1 o     84.8917    80.7620  0.78  1.66171
 -3  3  4 4 1 o     1.0339    0.9869  0.95  1.65985
  2  2  8 4 1 o     24.8314    23.7900 359.79  1.65768
 -7  1  3 4 1 o     46.9971    45.0291 180.55  1.65764
 -3  2  8 4 1 o    987.4731   948.8690 180.30  1.65455
 -2  1 10 4 1 o    243.6693   233.4329 180.23  1.65259
  4  3  0 4 1 o    441.8099   423.2452 180.31  1.65259
 -4  3  1 4 1 o     73.1756    70.0505 180.12  1.65232
 -6  2  3 4 1 o    1038.9935   981.1275  0.30  1.64880
  4  1  8 4 1 o    1277.3373   1198.4155  0.39  1.64759
  2  0 10 2 1 o     18.6635    17.4471  1.99  1.64701
  1  1 10 4 1 o     6.5648    5.9880  0.39  1.64387
 -4  1  9 4 1 o    120.4049   109.1571 359.82  1.64314
 -5  1  8 4 1 o    429.1071   385.7338 180.31  1.64207
  6  1  5 4 1 o     43.5569    39.1383 180.64  1.64202
  4  3  1 4 1 o    112.0560    98.7371 179.88  1.63830
 -4  3  2 4 1 o     11.0763    9.7421  0.41  1.63753
  3  1  9 4 1 o     20.8669    18.3364 180.84  1.63526
 -5  2  6 4 1 o     27.2037    23.9310 180.56  1.63456
  6  2  2 4 1 o    670.2159   593.0765  0.30  1.63271
  7  1  2 4 1 o    216.9490   192.0197  0.47  1.63266
  2  3  5 4 1 o     78.8930    71.0477 180.15  1.62907
  0  3  6 4 1 o    622.4556   577.9158  0.25  1.62527
 -1  2  9 4 1 o    214.0007   205.9404 180.24  1.62213
 -1  3  6 4 1 o    121.3492   117.8840  0.12  1.62131
  0  2  9 4 1 o    440.7461   429.4674  0.28  1.62104
  5  1  7 4 1 o    191.8456   188.4693 180.19  1.62028
 -7  1  4 4 1 o    423.7035   419.5231 180.37  1.61948
  5  2  5 4 1 o    1544.9901   1540.1920 180.31  1.61870
  3  3  4 4 1 o     44.0177    44.0332 180.03  1.61827
  6  0  6 2 1 o    166.4021   168.1711 359.90  1.61682
  4  3  2 4 1 o    399.7206   419.6603 180.33  1.61056
 -6  2  4 4 1 o     83.1406    87.8793 180.19  1.60959
 -4  3  3 4 1 o    1963.5833   2079.0806  0.21  1.60933
  1  3  6 4 1 o    586.4811   635.0615 180.22  1.60155
 -3  3  5 4 1 o    2109.7476   2283.6091 180.31  1.60129
 -3  1 10 4 1 o    219.8511   236.1812 180.28  1.59893
 -6  1  7 4 1 o     9.7944    10.3793 180.84  1.59597
 -2  2  9 4 1 o    1135.8574   1202.6630  0.24  1.59582
  1  2  9 4 1 o    391.8961   405.3369 180.34  1.59271
 -2  3  6 4 1 o     0.5532    0.5612  0.78  1.59027
  6  2  3 4 1 o    128.6692   129.0931  0.12  1.58874
  7  0  4 2 1 o    137.8904   137.9778 179.75  1.58837
  7  1  3 4 1 o     87.6934    86.9947  0.62  1.58711
  2  1 10 4 1 o    344.8025   339.5607  0.35  1.58582
 -4  0 10 2 1 o    2172.7576   2095.8950 180.34  1.58057
  3  2  8 4 1 o    138.8583   130.9372  0.27  1.57510
  4  2  7 4 1 o    167.7565   158.0773  0.70  1.57477
  5  0  8 2 1 o    985.9136   924.0577  0.20  1.57166
  4  3  3 4 1 o    202.6686   189.8426  0.65  1.57135
 -4  2  8 4 1 o     2.6238    2.4577 178.56  1.57134
 -7  1  5 4 1 o    143.4880   134.3269 180.37  1.57102
 -4  3  4 4 1 o    246.4866   230.3102  0.02  1.56976
 -7  0  6 2 1 o     15.3132    14.2978 359.94  1.56828
 -6  0  8 2 1 o    2426.4753   2270.0100 180.28  1.56581
  3  0 10 2 1 o    2409.6392   2249.5146 180.36  1.56292
 -6  2  5 4 1 o    110.9569   102.5183  0.15  1.56049
  6  1  6 4 1 o     66.3514    60.6895  0.60  1.55882
 -5  2  7 4 1 o     66.1002    59.5366 180.14  1.55642
  3  3  5 4 1 o     51.1578    45.8120 359.87  1.55491
  2  3  6 4 1 o    178.8323   159.8915 180.23  1.55359
 -3  2  9 4 1 o     72.7494    68.6553 180.50  1.54588
  8  0  0 2 1 o    597.2018   590.2000 180.23  1.54182
  2  2  9 4 1 o    301.3441   299.4275  0.48  1.54118
  0  3  7 4 1 o     48.3057    48.0134  0.31  1.54114
 -8  0  2 2 1 o     9.2678    9.2247  2.24  1.54096
  5  2  6 4 1 o    131.2945   131.3343 180.40  1.54026
 -1  3  7 4 1 o    497.9765   501.0188 180.33  1.53920
 -1  1 11 4 1 o    217.1749   218.5295  0.17  1.53917
 -5  1  9 4 1 o    325.3368   328.1336  0.46  1.53855
 -3  3  6 4 1 o     0.5120    0.5186 179.08  1.53654
  6  2  4 4 1 o    219.7194   222.7044  0.46  1.53616
  0  1 11 4 1 o    895.3974   908.6002  0.34  1.53538
 -5  3  1 4 1 o    223.0786   226.5664  0.19  1.53457
  5  3  0 4 1 o     46.7718    47.5134 179.76  1.53336
  7  1  4 4 1 o    151.5173   153.9131 180.18  1.53327
  4  1  9 4 1 o    245.7140   248.6828 180.10  1.53023
 -4  1 10 4 1 o    429.8905   429.3093  0.41  1.52625
 -5  3  2 4 1 o     6.1824    6.1188 180.34  1.52409
  4  3  4 4 1 o     42.6023    42.0430  0.04  1.52320
 -4  3  5 4 1 o    193.5822   190.0040  0.48  1.52133
  5  3  1 4 1 o     21.4927    21.0412 181.17  1.52054
  1  3  7 4 1 o    339.3990   330.9662 180.14  1.51949
 -2  1 11 4 1 o    518.0237   504.9586  0.24  1.51939
  5  1  8 4 1 o    1075.0002   1042.8374 180.39  1.51823
 -7  1  6 4 1 o     1.0648    1.0194 181.26  1.51517
 -7  2  1 4 1 o     31.9020    30.4907 181.48  1.51477
 -2  3  7 4 1 o    150.8632   143.7278  0.59  1.51393
 -6  1  8 4 1 o    665.7756   632.3503  0.34  1.51295
  7  2  0 4 1 o     46.8067    44.3158  0.09  1.51088
  3  1 10 4 1 o    119.3447   112.9779 180.53  1.51034
  1  1 11 4 1 o    927.1213   878.7318 180.34  1.50854
 -7  2  2 4 1 o     4.0431    3.8389 180.39  1.50737
 -1  2 10 4 1 o    448.3894   427.6483 180.27  1.50532
 -6  2  6 4 1 o     2.5742    2.4620 179.82  1.50438
  0  2 10 4 1 o     0.3393    0.3259 183.25  1.50311
 -5  3  3 4 1 o    207.0303   199.1217 180.31  1.50261
  5  3  2 4 1 o     1.7478    1.6973 178.01  1.49696
  8  0  2 2 1 o    241.7888   234.9215 180.46  1.49684
 -8  1  1 4 1 o     2.7030    2.6332 179.58  1.49633
  7  2  1 4 1 o    725.5089   708.2626  0.46  1.49597
 -8  0  4 2 1 o    1457.6580   1437.7515  0.42  1.49449
  8  1  0 4 1 o    386.7310   386.0778 180.58  1.49127
 -8  1  2 4 1 o    904.4661   902.1144  0.42  1.49050
 -7  2  3 4 1 o     1.5667    1.5579 357.79  1.48917
 -5  0 10 2 1 o     52.5596    52.1219 179.62  1.48811
  3  3  6 4 1 o     11.3349    11.2247  0.24  1.48758
 -2  2 10 4 1 o    1283.0919   1263.1279 180.18  1.48551
  4  2  8 4 1 o    785.1842   771.6735  0.25  1.48188
  1  2 10 4 1 o    187.0723   187.0495  0.42  1.47917
 -3  1 11 4 1 o    187.2477   188.1044 180.15  1.47864
 -4  2  9 4 1 o     60.3033    60.5814 179.74  1.47864
 -5  2  8 4 1 o     0.4687    0.4743 183.59  1.47786
  6  2  5 4 1 o     50.3330    50.9562 179.80  1.47782
  2  3  7 4 1 o     1.0608    1.0816 358.91  1.47708
  6  1  7 4 1 o     88.8272    91.1037 180.22  1.47647
  8  1  1 4 1 o     48.7621    50.4127 359.94  1.47566
 -8  1  3 4 1 o    505.4866   530.5013  0.40  1.47416
  7  1  5 4 1 o    1409.0787   1481.2991  0.28  1.47398
  3  2  9 4 1 o    278.1016   295.4446 180.51  1.47288
 -5  3  4 4 1 o     0.8136    0.8749  2.59  1.47150
  7  2  2 4 1 o     24.6684    26.6352 359.83  1.47098
  4  0 10 2 1 o    152.3013   166.4310  0.52  1.46922
  4  3  5 4 1 o    817.7591   895.9614  0.36  1.46876
 -3  3  7 4 1 o    287.7549   315.5418 180.53  1.46859
  0  4  0 2 1 o     19.4792    21.4148 180.93  1.46807
 -4  3  6 4 1 o    2275.1472   2513.0837 180.26  1.46671
  5  3  3 4 1 o    913.4608   1010.0156 180.44  1.46408
  0  4  1 4 1 o    1073.8584   1185.0061  0.22  1.46293
 -1  0 12 2 1 o    538.5659   593.9373 180.39  1.46263
  2  1 11 4 1 o    290.4763   319.9459  0.49  1.46207
  5  2  7 4 1 o    184.1062   202.7085 180.68  1.46191
 -7  2  4 4 1 o     6.9032    7.5905 180.03  1.46132
  0  3  8 4 1 o    473.1369   516.3975  0.33  1.45861
 -1  3  8 4 1 o    281.8361   307.0679 180.44  1.45819
  0  0 12 2 1 o    1131.6991   1232.8601  0.39  1.45816
  1  4  0 4 1 o    370.2679   402.6494  0.50  1.45778
 -7  1  7 4 1 o     5.0733    5.3984  0.80  1.45473
  7  0  6 2 1 o    1237.4323   1313.5706 180.18  1.45446
 -1  4  1 4 1 o    317.2049   335.1214 180.39  1.45395
  1  4  1 4 1 o    134.1238   138.3383  0.28  1.45154
  8  1  2 4 1 o    165.4962   168.8848 180.51  1.45046
 -8  1  4 4 1 o    285.4825   285.7939  0.33  1.44832
  0  4  2 4 1 o    1002.3790   999.5222 180.31  1.44783
 -2  0 12 2 1 o     23.7462    23.4918 180.05  1.44682
 -3  2 10 4 1 o     0.3565    0.3508 184.95  1.44617
 -6  2  7 4 1 o    191.4497   184.9060 180.27  1.44398
 -5  1 10 4 1 o    357.7092   340.9805 180.60  1.44252
 -1  4  2 4 1 o     49.6839    46.4992  0.60  1.44030
  1  3  8 4 1 o     28.3560    26.3444 359.94  1.43904
  6  0  8 2 1 o    911.5398   844.3029 180.29  1.43824
 -2  3  8 4 1 o    117.2067   108.4423 180.02  1.43781
  7  2  3 4 1 o    116.9541   108.1265  0.47  1.43741
  2  2 10 4 1 o    126.5773   116.9169 180.49  1.43645
  1  4  2 4 1 o    142.8459   131.9533  0.27  1.43562
  1  0 12 2 1 o    1167.5649   1081.2266 180.40  1.43394
 -7  0  8 2 1 o    708.1550   657.8564 180.19  1.43294
 -5  3  5 4 1 o     92.8618    86.3977 180.65  1.43254
 -6  1  9 4 1 o     9.5381    8.8947 359.26  1.43198
  2  4  0 4 1 o    576.4103   545.5870 180.40  1.42816
 -2  4  1 4 1 o    758.8718   723.4068  0.38  1.42571
 -7  2  5 4 1 o    924.9725   882.3013 180.21  1.42542
  4  1 10 4 1 o    141.4017   134.9164  0.55  1.42529
  5  1  9 4 1 o    762.0154   729.1788 180.34  1.42379
  5  3  4 4 1 o    504.8090   483.0794  0.22  1.42376
  0  4  3 4 1 o    432.0808   413.5505  0.31  1.42366
 -4  1 11 4 1 o     4.0952    3.9267 180.34  1.42173
  2  4  1 4 1 o    1308.6295   1253.9945 180.31  1.42116
 -6  3  1 4 1 o    1035.8187   987.5361  0.26  1.41968
 -1  1 12 4 1 o    244.8901   232.9828  0.41  1.41927
  3  3  7 4 1 o     8.9336    8.4807  0.53  1.41888
 -1  4  3 4 1 o     79.6096    75.0142 180.66  1.41763
  6  3  0 4 1 o    117.1684   110.3858 180.36  1.41760
  8  1  3 4 1 o    394.6074   370.7108 180.37  1.41713
  8  0  4 2 1 o    114.5515   107.4657 180.37  1.41690
  6  2  6 4 1 o    414.7472   387.6235 180.11  1.41629
  0  1 12 4 1 o    771.9345   715.9619 180.38  1.41518
 -8  1  5 4 1 o     1.6507    1.5224  2.80  1.41446
 -2  4  2 4 1 o     1.7668    1.6225 357.19  1.41394
 -8  0  6 2 1 o    839.9271   768.9135  0.39  1.41357
 -3  0 12 2 1 o    142.1692   129.1075  0.41  1.41261
 -6  3  2 4 1 o    355.4950   322.4691  0.27  1.41247
  7  1  6 4 1 o    121.5574   109.6865  0.24  1.41180
  1  4  3 4 1 o     4.8322    4.3328 179.88  1.41095
  4  3  6 4 1 o    137.3483   122.7704  0.30  1.41051
 -4  3  7 4 1 o     0.0204    0.0179 100.45  1.40837
  6  3  1 4 1 o    182.6633   159.2531  0.57  1.40635
  2  4  2 4 1 o     0.1804    0.1567 180.71  1.40512
 -2  1 12 4 1 o    371.7274   322.8236 180.34  1.40481
  2  3  8 4 1 o     43.6793    38.1983  0.61  1.40178
 -1  2 11 4 1 o     14.8647    13.0195 180.04  1.40150
  3  1 11 4 1 o     67.6953    59.4003 180.63  1.40120
 -5  2  9 4 1 o    920.4772   808.5305 180.36  1.40104
 -3  3  8 4 1 o     24.0361    21.2812 180.36  1.39989
  0  2 11 4 1 o    595.4623   532.4792  0.21  1.39864
  7  2  4 4 1 o    142.8801   129.8367 180.44  1.39705
  6  1  8 4 1 o    680.7589   619.3077 180.17  1.39695
 -6  3  3 4 1 o    231.9711   212.4463  0.15  1.39639
  4  2  9 4 1 o     99.0772    92.8386  0.78  1.39475
 -2  4  3 4 1 o    258.2451   246.9397  0.58  1.39353
  1  1 12 4 1 o     9.5422    9.2115  1.05  1.39301
  2  0 12 2 1 o    1101.9335   1068.1971  0.49  1.39279
 -6  0 10 2 1 o    1167.8546   1146.4504  0.13  1.39211
 -7  1  8 4 1 o    261.2758   256.5833 180.33  1.39209
  0  4  4 4 1 o    632.0191   624.0989  0.29  1.39178
 -4  2 10 4 1 o     9.8371    9.7228  0.90  1.39173
 -5  3  6 4 1 o    236.9738   242.6054  0.43  1.38771
 -1  4  4 4 1 o     0.2585    0.2653 358.36  1.38719
  6  3  2 4 1 o     76.9445    79.2685  0.07  1.38658
 -2  2 11 4 1 o    335.2048   345.4520 180.15  1.38653
  5  2  8 4 1 o     40.0780    41.5563 180.42  1.38564
 -7  2  6 4 1 o    217.8288   230.6120  0.26  1.38332
  3  4  0 4 1 o    411.9863   439.5189  0.38  1.38258
 -6  2  8 4 1 o     18.6740    20.1189 180.07  1.38162
 -3  4  1 4 1 o    182.7487   197.3691 180.49  1.38138
  2  4  3 4 1 o     29.4991    32.0042 359.87  1.38092
 -1  3  9 4 1 o    124.6992   136.3513 180.27  1.38008
  3  2 10 4 1 o     72.9040    80.0204 180.05  1.37964
  0  3  9 4 1 o     39.5931    43.5360 359.93  1.37941
  1  4  4 4 1 o    569.3236   628.5119 180.36  1.37886
  1  2 11 4 1 o     0.2983    0.3305  2.63  1.37826
  5  3  5 4 1 o    512.4359   568.4382 180.51  1.37797
  8  1  4 4 1 o     1.0137    1.1269 358.61  1.37737
  3  4  1 4 1 o     9.7166    10.8195 179.21  1.37520
 -8  1  6 4 1 o     25.4472    28.3289 180.36  1.37431
 -3  1 12 4 1 o     39.3719    43.8225 180.49  1.37343
  5  0 10 2 1 o     64.1054    71.3484 180.53  1.37323
 -6  3  4 4 1 o    3404.2747   3786.5310 180.28  1.37234
 -9  0  2 2 1 o    963.3271   1070.7615 180.38  1.37193
 -3  4  2 4 1 o    240.2945   266.9360  0.43  1.37168
  9  0  0 2 1 o     70.4986    77.8875 359.98  1.37051
 -8  2  1 4 1 o    527.0596   573.2730  0.55  1.36893
 -2  4  4 4 1 o     7.9590    8.2767 180.07  1.36559
  8  2  0 4 1 o     91.8865    95.0909 180.37  1.36506
 -8  2  2 4 1 o     1.0581    1.0903 358.79  1.36446
 -2  3  9 4 1 o     49.3189    50.6171 179.80  1.36377
 -4  0 12 2 1 o     17.2543    17.7051  0.09  1.36374
  1  3  9 4 1 o    267.6053   271.7868  0.57  1.36183
  3  4  2 4 1 o     52.4594    52.4270  0.12  1.35965
  6  3  3 4 1 o     42.6146    42.4943 179.16  1.35934
 -3  2 11 4 1 o     87.5580    86.9152 180.59  1.35535
  2  1 12 4 1 o     66.9702    66.5177  0.13  1.35519
 -6  1 10 4 1 o    139.6718   139.0440  0.69  1.35457
 -5  1 11 4 1 o     12.6186    12.5730 179.82  1.35429
 -3  4  3 4 1 o    125.1218   124.7683 180.65  1.35401
  0  4  5 4 1 o    964.0557   961.8188  0.33  1.35377
  6  2  7 4 1 o    131.0579   130.7767  0.48  1.35368
  8  2  1 4 1 o    136.6848   136.4589 180.79  1.35305
 -8  2  3 4 1 o    813.7515   810.6996  0.40  1.35189
  7  2  5 4 1 o     64.1266    63.8551  0.08  1.35176
  3  3  8 4 1 o    373.5653   370.1644 180.28  1.35077
  4  3  7 4 1 o     15.3384    15.1796  0.54  1.35056
 -1  4  5 4 1 o    674.4714   667.2793 180.41  1.35051
  2  4  4 4 1 o     99.4825    97.9621 179.98  1.34983
  7  1  7 4 1 o     16.4508    16.0765 180.38  1.34879
 -4  3  8 4 1 o     2.1155    2.0615  0.57  1.34840
  2  2 11 4 1 o    179.4104   173.0275  0.30  1.34255
 -6  3  5 4 1 o    185.5706   180.0733 180.18  1.34152
  1  4  5 4 1 o     7.0959    6.9133 179.99  1.34092
 -9  0  4 2 1 o    903.8287   881.7833 180.49  1.34072
 -9  1  1 4 1 o    383.8338   377.6794  0.21  1.33920
  3  0 12 2 1 o    321.5478   316.7157 180.61  1.33893
 -5  3  7 4 1 o    2222.0696   2188.6023 180.37  1.33894
  5  1 10 4 1 o    143.4173   141.6180 180.41  1.33716
 -7  2  7 4 1 o     0.1493    0.1475 179.33  1.33686
  9  0  2 2 1 o     51.3441    50.6955  0.28  1.33674
  3  4  3 4 1 o     77.0057    76.0332  0.70  1.33676
 -9  1  2 4 1 o    887.2815   875.8102 180.40  1.33595
  9  1  0 4 1 o     0.1586    0.1564  11.00  1.33464
  8  2  2 4 1 o     51.7485    51.0398  0.29  1.33355
  8  1  5 4 1 o     12.2467    12.0746 359.91  1.33298
 -3  3  9 4 1 o     63.9355    62.9982 181.00  1.33221
 -8  2  4 4 1 o    583.7307   575.0347 180.35  1.33188
  4  1 11 4 1 o     37.6497    37.0810  0.81  1.33156
 -2  4  5 4 1 o     29.7966    29.3456  1.14  1.33149
 -8  1  7 4 1 o     32.9472    32.4680  0.42  1.32965
 -3  4  4 4 1 o    392.6562   387.1355 180.25  1.32926
  2  3  9 4 1 o    106.0023   104.5211 180.75  1.32920
 -7  1  9 4 1 o     3.6136    3.5633 178.89  1.32917
  5  3  6 4 1 o    109.5747   108.1352 180.37  1.32861
 -4  1 12 4 1 o    608.7650   600.9976  0.42  1.32838
 -5  2 10 4 1 o     46.4075    45.9052 180.54  1.32736
  6  3  4 4 1 o     45.5419    45.2353 180.15  1.32597
  4  4  0 4 1 o     0.0721    0.0718 355.91  1.32552
 -4  4  1 4 1 o     45.8802    45.6741  0.43  1.32538
 -9  1  3 4 1 o     26.6369    26.5504 359.54  1.32507
  9  1  1 4 1 o     5.7161    5.7224  0.78  1.32250
  6  1  9 4 1 o    138.7759   138.6062  0.33  1.32143
 -6  2  9 4 1 o     11.8490    11.7911 179.21  1.31914
  7  0  8 2 1 o    1556.4790   1549.4296  0.26  1.31855
  4  4  1 4 1 o     41.2767    41.1155 180.61  1.31811
 -4  4  2 4 1 o     6.8150    6.7944 359.04  1.31771
  8  0  6 2 1 o    232.7295   232.0992 180.21  1.31759
 -1  1 13 4 1 o    361.6569   363.0147 180.37  1.31612
  4  2 10 4 1 o     39.3614    40.1249 180.41  1.31390
 -8  0  8 2 1 o    787.8800   803.4539  0.27  1.31384
  2  4  5 4 1 o     8.3441    8.5324 181.06  1.31329
  5  2  9 4 1 o    144.2081   147.7077 180.48  1.31273
 -7  3  1 4 1 o    226.1636   231.7901  0.28  1.31214
  0  1 13 4 1 o     83.5947    85.6707  0.58  1.31197
  0  4  6 4 1 o    517.3549   529.6502  0.40  1.31129
 -4  2 11 4 1 o     19.5421    19.9972 178.98  1.31112
  7  3  0 4 1 o     1.8395    1.8695 179.02  1.30961
 -1  4  6 4 1 o     47.7889    48.4446 359.71  1.30921
 -1  2 12 4 1 o     1.1674    1.1832 180.95  1.30919
  3  4  4 4 1 o    251.3159   251.6673 180.50  1.30761
  8  2  3 4 1 o     0.9730    0.9735 358.64  1.30750
 -7  3  2 4 1 o    591.0195   590.4343 180.28  1.30732
 -9  1  4 4 1 o     2.0738    2.0677 359.35  1.30708
 -1  3 10 4 1 o    136.9189   135.2599 180.57  1.30599
  0  2 12 4 1 o    1400.8711   1383.7594 180.31  1.30597
 -2  1 13 4 1 o     15.9151    15.6481 180.19  1.30544
  3  1 12 4 1 o     0.7098    0.6978  0.41  1.30542
 -8  2  5 4 1 o     73.2617    72.0113 180.32  1.30541
 -6  3  6 4 1 o    299.2396   294.0370  0.12  1.30537
 -5  0 12 2 1 o     43.9946    42.9909 180.16  1.30476
  0  3 10 4 1 o    405.4145   395.3792 180.11  1.30454
  4  4  2 4 1 o     18.4044    17.7815  0.82  1.30353
  9  1  2 4 1 o     63.0899    60.8832  0.60  1.30340
  7  2  6 4 1 o    353.2668   340.6601 180.35  1.30332
 -4  4  3 4 1 o    194.8140   187.1352  0.36  1.30288
  7  3  1 4 1 o    295.7321   277.7977 180.49  1.29986
  1  4  6 4 1 o    176.5739   164.6730 180.48  1.29874
 -3  4  5 4 1 o    130.5134   121.6145 180.62  1.29860
 -7  0 10 2 1 o     0.4693    0.4356 178.92  1.29796
 -2  2 12 4 1 o    1622.1826   1504.1239  0.28  1.29781
 -7  3  3 4 1 o    521.9207   476.0394 180.12  1.29540
  3  2 11 4 1 o    982.9486   893.8983 180.31  1.29496
  1  1 13 4 1 o     58.3341    52.6125 180.77  1.29339
 -2  3 10 4 1 o    101.6869    91.6040  0.57  1.29299
 -2  4  6 4 1 o     58.7638    52.9072  0.83  1.29270
  6  2  8 4 1 o    102.5625    92.3172  0.49  1.29160
  4  3  8 4 1 o     1.2330    1.1122 179.49  1.29059
  1  3 10 4 1 o     1.4504    1.3184 358.45  1.28880
  1  2 12 4 1 o     31.5188    28.6957  0.79  1.28849
 -4  3  9 4 1 o    298.4147   271.7502  0.64  1.28845
 -5  3  8 4 1 o    239.7448   218.9276  0.33  1.28793
  6  3  5 4 1 o    369.5234   337.4844  0.57  1.28790
 -7  2  8 4 1 o    139.3486   127.3617 180.17  1.28776
  7  1  8 4 1 o    929.8510   854.8654  0.29  1.28652
  8  1  6 4 1 o    383.4819   353.6753  0.22  1.28562
  3  3  9 4 1 o     44.4659    41.1096  0.94  1.28463
  7  3  2 4 1 o     67.5631    62.5575 180.23  1.28337
 -9  0  6 2 1 o    219.5817   203.3319 180.67  1.28303
 -9  1  5 4 1 o    1770.1923   1639.1779 180.37  1.28286
  4  4  3 4 1 o    241.8053   223.8845 180.52  1.28248
 -8  1  8 4 1 o     5.5080    5.0991 180.58  1.28214
 -4  4  4 4 1 o    168.8297   156.2588 180.34  1.28161
 -6  1 11 4 1 o    1263.3188   1169.2313 180.27  1.28156
 -3  1 13 4 1 o     2.1982    2.0345 359.19  1.28097
  6  0 10 2 1 o     26.0062    24.0928  0.27  1.27988
  9  1  3 4 1 o    384.6608   357.9158 180.22  1.27823
  5  3  7 4 1 o    121.5174   113.4897 180.50  1.27733
  9  0  4 2 1 o    168.5210   157.4598  0.26  1.27724
  4  0 12 2 1 o    113.0406   105.7697  0.51  1.27695
 -7  3  4 4 1 o    708.2861   662.7771  0.31  1.27694
  8  2  4 4 1 o     16.1103    15.1468  0.42  1.27608
 -5  1 12 4 1 o    302.8392   289.0728 180.64  1.27370
 -8  2  6 4 1 o    354.4807   338.4737  0.16  1.27365
  3  4  5 4 1 o    811.0338   775.2104  0.40  1.27349
 -3  2 12 4 1 o     0.3598    0.3452 183.57  1.27295
  2  4  6 4 1 o    604.3726   580.5454  0.41  1.27277
 -7  1 10 4 1 o     13.3973    13.3050 181.44  1.26737
 -3  3 10 4 1 o     1.2508    1.2473 358.47  1.26679
  0  4  7 4 1 o    226.8074   227.8073 180.16  1.26590
 -6  3  7 4 1 o     13.4157    13.5470 179.44  1.26532
 -1  4  7 4 1 o     8.2533    8.3775 181.63  1.26482
 -3  4  6 4 1 o    107.8694   111.4013 180.60  1.26334
 -5  4  1 4 1 o    144.6640   151.2698  0.29  1.26225
  2  1 13 4 1 o    716.4022   749.8043  0.39  1.26216
  5  4  0 4 1 o     2.1664    2.2805  0.96  1.26157
  7  3  3 4 1 o     11.5375    12.2142 181.80  1.26089
  2  3 10 4 1 o    504.4328   536.3361  0.30  1.26024
  2  2 12 4 1 o    925.7532   993.2834 180.36  1.25839
  5  1 11 4 1 o    799.2165   858.8944  0.23  1.25807
 -6  2 10 4 1 o     14.5199    15.6194  0.42  1.25789
 -5  2 11 4 1 o     87.0873    93.7955 180.90  1.25767
 -5  4  2 4 1 o    713.7147   773.8798 180.16  1.25639
  4  4  4 4 1 o     13.9635    15.1668  1.14  1.25589
 -4  4  5 4 1 o    239.8973   260.5378 180.16  1.25485
  5  4  1 4 1 o     57.7266    62.5853  0.26  1.25441
 -1  0 14 2 1 o     7.0807    7.6686 180.45  1.25421
  1  4  7 4 1 o     4.8817    5.2737  0.40  1.25382
 -9  1  6 4 1 o     11.3411    12.2191  0.91  1.25346
  7  2  7 4 1 o     94.5335   101.6832 180.49  1.25326
 -7  3  5 4 1 o     0.7641    0.8184 177.28  1.25278
 -2  4  7 4 1 o     15.0103    15.7617 179.52  1.25069
  6  1 10 4 1 o    162.6961   170.6010  0.30  1.25053
  0  0 14 2 1 o    159.7094   166.5376  0.45  1.24985
  9  1  4 4 1 o     36.3910    37.6245  0.31  1.24806
  4  1 12 4 1 o    582.1730   601.6468  0.31  1.24779
  6  3  6 4 1 o     82.5279    85.2446  0.54  1.24656
 -2  0 14 2 1 o     64.9235    67.0378 180.24  1.24572
 -9  2  1 4 1 o    137.1411   141.5882 180.72  1.24555
 -4  1 13 4 1 o    216.9908   223.8576 180.20  1.24495
 -5  4  3 4 1 o    789.3745   813.4427 180.24  1.24428
  5  2 10 4 1 o    337.6789   347.7484  0.21  1.24391
 -9  2  2 4 1 o    672.3480   691.4009 180.18  1.24294
  9  2  0 4 1 o     1.4695    1.5102  1.44  1.24188
  5  4  2 4 1 o     14.9238    15.3457 359.53  1.24107
  8  2  5 4 1 o     81.5473    83.9291  0.38  1.24054
 -6  0 12 2 1 o    107.0458   110.2834  0.44  1.24009
  4  2 11 4 1 o    142.8936   147.5037  0.36  1.23940
 -8  2  7 4 1 o    341.0716   353.5753 180.42  1.23786
 -7  2  9 4 1 o     56.9694    59.1078 359.93  1.23747
 -4  2 12 4 1 o     0.0170    0.0177  10.23  1.23683
  8  1  7 4 1 o    465.9543   484.0595  0.35  1.23676
 -1  3 11 4 1 o    2327.7783   2419.2832  0.30  1.23645
 -5  3  9 4 1 o     46.5889    48.4390 359.41  1.23613
 -10  0  2 2 1 o    449.4415   467.3604  0.47  1.23598
  3  4  6 4 1 o    364.9391   379.5737 180.42  1.23571
  0  3 11 4 1 o    675.9348   703.4366 180.48  1.23448
 -9  2  3 4 1 o    1778.6791   1851.1012 180.35  1.23416
 10  0  0 2 1 o     3.7703    3.9232 179.41  1.23346
  7  3  4 4 1 o    397.6996   413.8028 180.39  1.23338
 -8  1  9 4 1 o    268.1639   278.9919 180.30  1.23322
  1  0 14 2 1 o     57.5373    59.8512 180.58  1.23302
  9  2  1 4 1 o    234.8826   244.0033 180.10  1.23208
  4  3  9 4 1 o    279.3617   290.0293 180.40  1.23180
  6  2  9 4 1 o    143.0592   148.2786  0.30  1.23121
 -4  3 10 4 1 o    673.4532   693.8328  0.33  1.22972
  2  4  7 4 1 o     78.2805    80.6291 359.88  1.22967
 -1  2 13 4 1 o    832.6689   848.4782  0.41  1.22692
 -1  1 14 4 1 o    121.4862   123.7079  0.83  1.22655
 -5  4  4 4 1 o    877.0833   892.9708  0.32  1.22644
 -2  3 11 4 1 o    314.6595   320.2459 180.26  1.22613
  7  1  9 4 1 o     33.2024    33.7906  0.03  1.22608
  5  3  8 4 1 o     5.3852    5.4796 180.90  1.22551
 -3  0 14 2 1 o     81.8481    83.2951 180.15  1.22513
  4  4  5 4 1 o     0.7727    0.7865 355.67  1.22485
 -3  4  7 4 1 o     55.1736    56.1658 180.60  1.22476
 -7  3  6 4 1 o     53.7502    54.7790  0.72  1.22391
 -4  4  6 4 1 o     2.8379    2.8933  2.17  1.22367
  0  2 13 4 1 o    1072.1978   1093.3452 180.45  1.22355
 -6  3  8 4 1 o     1.9741    2.0158 359.49  1.22273
  0  1 14 4 1 o    814.4367   831.9672 180.50  1.22247
  5  4  3 4 1 o    235.5607   240.7359 180.21  1.22214
  3  3 10 4 1 o     3.1208    3.1917  0.29  1.22135
  3  1 13 4 1 o    273.9485   280.2419 180.39  1.22094
  1  3 11 4 1 o    168.4020   172.3129  0.75  1.22040
 -9  1  7 4 1 o     14.5577    14.8992 359.64  1.22001
 -9  2  4 4 1 o    1042.0945   1066.9476  0.37  1.21959
  0  4  8 4 1 o    541.5110   554.9615 180.22  1.21895
 -1  4  8 4 1 o    369.6196   379.0021 180.42  1.21870
 -2  1 14 4 1 o    101.5712   104.1734 359.88  1.21860
 -2  2 13 4 1 o    507.2421   520.6925 180.37  1.21825
  3  2 12 4 1 o    313.5600   321.8869  0.40  1.21824
  9  2  2 4 1 o    436.5996   450.2967  0.33  1.21659
 -10  0  4 2 1 o    2084.5723   2153.5525  0.44  1.21442
  9  1  5 4 1 o    513.9084   530.7236 180.34  1.21404
 -8  3  1 4 1 o     81.1015    83.7417  0.02  1.21391
 -6  1 12 4 1 o     0.1981    0.2044 165.61  1.21333
  8  0  8 2 1 o    4146.6001   4272.6934  0.31  1.21262
  8  3  0 4 1 o     8.9147    9.1551 180.74  1.21120
 -10  1  1 4 1 o    168.3486   172.8787  0.36  1.21119
  5  0 12 2 1 o    408.0634   418.8013 180.27  1.21102
 -8  3  2 4 1 o    474.9726   487.0590 180.23  1.21079
 -10  1  2 4 1 o    163.8679   166.8607  0.43  1.20948
 -8  0 10 2 1 o    634.2117   642.9745 180.29  1.20886
 -9  0  8 2 1 o    492.7312   497.9880 180.37  1.20846
  1  2 13 4 1 o    188.8756   190.8652  0.64  1.20844
 -7  1 11 4 1 o    151.3061   151.9632  0.32  1.20767
  1  4  8 4 1 o    691.1799   693.0507  0.25  1.20746
 10  0  2 2 1 o     3.7315    3.7364 180.40  1.20728
 10  1  0 4 1 o    282.2202   282.2153 180.41  1.20711
 -2  4  8 4 1 o    174.9676   174.4447  0.57  1.20673
  1  1 14 4 1 o     55.1264    54.9496  0.94  1.20671
  2  0 14 2 1 o    417.6574   411.1617  0.51  1.20518
 -3  3 11 4 1 o    256.2837   250.4832 180.51  1.20441
 -5  4  5 4 1 o    696.1788   675.2375  0.31  1.20361
  6  3  7 4 1 o     6.9334    6.7021  1.36  1.20323
  7  2  8 4 1 o     57.3059    55.2117 180.47  1.20283
  8  3  1 4 1 o    448.4787   431.9691  0.37  1.20280
  8  2  6 4 1 o    186.7362   179.0172 180.21  1.20210
 -10  1  3 4 1 o     0.3542    0.3394  7.79  1.20206
 -8  3  3 4 1 o    108.4618   103.9084 180.88  1.20198
  7  3  5 4 1 o     32.1283    30.7638 180.84  1.20189
  9  0  6 2 1 o     39.9546    38.2190 180.90  1.20170
 -5  1 13 4 1 o    298.1542   283.2082 180.37  1.20028
 -9  2  5 4 1 o    168.0200   159.1742  0.33  1.19984
 -3  1 14 4 1 o     77.1578    72.8193  0.26  1.19931
 -8  2  8 4 1 o    447.2106   421.8929 180.37  1.19925
 -6  2 11 4 1 o     72.9715    68.5749  1.12  1.19877
  5  4  4 4 1 o    119.6005   112.0273 180.75  1.19839
 -3  2 13 4 1 o    201.4129   188.5016 180.32  1.19829
 10  1  1 4 1 o    470.2139   437.0651 180.29  1.19744
  9  2  3 4 1 o    115.6142   106.8116 180.16  1.19604
 -6  4  1 4 1 o    179.1143   165.4632 180.57  1.19595
  3  4  7 4 1 o    102.5604    94.7673  0.72  1.19547
  2  3 11 4 1 o     71.9172    66.4617 181.18  1.19540
  6  4  0 4 1 o    650.9846   603.0640  0.29  1.19471
 -4  0 14 2 1 o    1401.2296   1302.0005  0.30  1.19417
 -5  2 12 4 1 o     4.1031    3.8611  0.12  1.19233
  7  0 10 2 1 o    446.6705   421.1935  0.28  1.19201
 -6  4  2 4 1 o    2153.7490   2035.7760 180.35  1.19163
 -7  3  7 4 1 o    554.7544   525.1893  0.29  1.19138
  4  4  6 4 1 o     60.6514    57.7495 179.96  1.19045
 -10  1  4 4 1 o    209.1253   200.8180 180.34  1.18925
 -4  4  7 4 1 o     84.1994    80.9071  0.29  1.18917
  8  3  2 4 1 o    246.4951   237.1119 180.23  1.18903
  6  4  1 4 1 o    268.7105   260.7716 180.04  1.18795
 -8  3  4 4 1 o    605.3268   587.9277  0.22  1.18785
  8  1  8 4 1 o    549.8684   535.2532 180.43  1.18756
 -7  2 10 4 1 o     20.9753    20.4789  0.47  1.18714
  5  1 12 4 1 o     33.4881    32.8812 180.30  1.18606
  2  4  8 4 1 o    1299.7378   1279.3651  0.25  1.18519
 -5  3 10 4 1 o    392.7668   386.9806 180.36  1.18464
  6  1 11 4 1 o     26.3059    25.9248 180.30  1.18447
 -3  4  8 4 1 o     4.2068    4.1485 182.48  1.18405
 -8  1 10 4 1 o    356.5459   351.6087 180.18  1.18403
 -9  1  8 4 1 o     13.6775    13.4968  1.25  1.18366
  2  2 13 4 1 o     0.2709    0.2678 353.54  1.18285
 10  1  2 4 1 o     0.1885    0.1866 179.52  1.18255
 -6  4  3 4 1 o    110.2825   109.4335 180.53  1.18193
  2  1 14 4 1 o    528.0809   526.2737 180.46  1.18057
  5  2 11 4 1 o    356.9973   355.5012  0.31  1.17949
 -6  3  9 4 1 o     55.2059    54.8330  0.69  1.17879
  9  1  6 4 1 o    152.9596   150.7605 180.24  1.17730
 -5  4  6 4 1 o     35.6463    35.0261 359.95  1.17665
  6  4  2 4 1 o    552.1214   541.0346  0.44  1.17596
 -9  2  6 4 1 o     51.0475    49.9739 179.86  1.17568
  4  3 10 4 1 o     1.1500    1.1236 181.67  1.17504
  5  3  9 4 1 o     65.9122    64.2380 180.11  1.17420
 -7  0 12 2 1 o    180.9023   175.9706 180.42  1.17342
  6  2 10 4 1 o    570.4962   554.7869  0.38  1.17326
 -4  3 11 4 1 o    354.3717   344.5031  0.46  1.17305
  4  1 13 4 1 o     15.1815    14.7549 180.17  1.17277
 -10  0  6 2 1 o     1.1607    1.1280 173.74  1.17231
 -1  4  9 4 1 o     0.0033    0.0032 248.93  1.17199
  0  5  1 4 1 o    311.0835   302.5295  0.35  1.17182
 -1  3 12 4 1 o     30.6322    29.7996 180.55  1.17166
  0  4  9 4 1 o     16.2916    15.8521 179.74  1.17158
 -10  1  5 4 1 o    154.3928   150.2381  0.65  1.17155
  9  2  4 4 1 o    263.4052   256.5713  0.36  1.17122
  4  2 12 4 1 o    322.6532   314.5305  0.24  1.17100
  5  4  5 4 1 o     47.0508    45.9216 179.88  1.17070
  8  3  3 4 1 o     80.8483    78.9908  0.58  1.17046
 -4  1 14 4 1 o    577.9409   565.2748 180.19  1.17022
  0  3 12 4 1 o    863.6296   848.1995  0.29  1.16936
  1  5  0 4 1 o     39.9309    39.2547  0.42  1.16917
 -8  3  5 4 1 o    3240.9417   3189.2837 180.38  1.16895
 -4  2 13 4 1 o     56.4015    55.5809  0.70  1.16865
  3  0 14 2 1 o     66.8662    65.9336  0.02  1.16851
  7  1 10 4 1 o    438.0220   432.5219 180.13  1.16819
  7  3  6 4 1 o     13.8475    13.7122 180.81  1.16745
 -6  4  4 4 1 o    185.5996   183.9196 180.47  1.16724
 -1  5  1 4 1 o     20.6854    20.5010  0.05  1.16719
  1  5  1 4 1 o    131.4460   130.6896 180.47  1.16594
  0  5  2 4 1 o    461.7538   459.1937  0.45  1.16401
 -2  3 12 4 1 o     99.4705    98.8255  0.41  1.16349
 10  1  3 4 1 o    141.2827   140.2651 180.25  1.16303
 -2  4  9 4 1 o     0.3007    0.2987  4.48  1.16195
  8  2  7 4 1 o     4.2237    4.1972 180.48  1.16187
 10  0  4 2 1 o     6.5844    6.5480  1.65  1.16167
  3  3 11 4 1 o    309.4736   308.1095  0.62  1.16144
  1  4  9 4 1 o    474.6230   474.6933 180.28  1.16075
 -1  5  2 4 1 o     4.2590    4.2833 182.48  1.16009
  6  4  3 4 1 o     23.2191    23.5250  0.65  1.15921
  6  3  8 4 1 o     58.3771    59.2354  0.45  1.15901
 -8  2  9 4 1 o    135.6297   137.7076 180.20  1.15893
  1  5  2 4 1 o    349.8778   357.7899 180.43  1.15764
  1  3 12 4 1 o    251.0619   257.4600 180.28  1.15676
 -7  3  8 4 1 o     1.8129    1.8615 178.24  1.15623
 -5  0 14 2 1 o     56.8056    58.4795 180.71  1.15518
  3  4  8 4 1 o     13.3326    13.7929  0.54  1.15388
  4  4  7 4 1 o     14.4989    15.0088 181.55  1.15375
  2  5  0 4 1 o     83.2553    86.1967  0.14  1.15372
 -1  2 14 4 1 o     47.5411    49.3069  0.13  1.15339
  7  2  9 4 1 o     7.8657    8.1759 179.70  1.15300
 -2  5  1 4 1 o    169.7991   177.1118 180.35  1.15242
 -4  4  8 4 1 o    778.5793   812.2217  0.47  1.15240
  0  5  3 4 1 o     8.7089    9.1404  1.45  1.15135
 -7  1 12 4 1 o     65.8652    69.3776 180.97  1.15067
  2  5  1 4 1 o    314.4271   332.4281  0.28  1.15002
  0  2 14 4 1 o    1230.6016   1301.2853  0.26  1.14999
 -6  1 13 4 1 o     22.4276    23.7204 179.79  1.14996
 -10  1  6 4 1 o     0.3585    0.3800 186.92  1.14963
  3  2 13 4 1 o     92.2157    98.3988  0.53  1.14873
 -1  5  3 4 1 o    233.2577   249.9386 180.39  1.14814
 -1  1 15 4 1 o     54.2833    58.1799  0.37  1.14811
 -6  4  5 4 1 o    273.2262   292.8569 180.47  1.14810
 -9  2  7 4 1 o    172.5025   185.0730  0.52  1.14795
  8  3  4 4 1 o    546.5026   587.0101  0.42  1.14776
 -2  2 14 4 1 o    350.8773   378.3351 180.17  1.14677
 -5  4  7 4 1 o     3.7177    4.0100 179.17  1.14648
 -2  5  2 4 1 o    1284.0822   1384.9639  0.40  1.14618
  3  1 14 4 1 o    194.4353   209.6756  0.38  1.14605
 -8  3  6 4 1 o    180.7720   194.9224 180.47  1.14599
 -3  3 12 4 1 o    102.2535   110.0974 180.38  1.14547
 -9  1  9 4 1 o     26.8530    28.9075  0.37  1.14543
  1  5  3 4 1 o    163.1319   174.8665 359.99  1.14459
  6  0 12 2 1 o    1514.5901   1621.2925 180.36  1.14436
  0  1 15 4 1 o     82.4334    88.1350 180.30  1.14417
  9  2  5 4 1 o    304.5966   323.0564  0.24  1.14297
 -6  2 12 4 1 o    215.4523   227.4218  0.22  1.14238
 -3  4  9 4 1 o     38.3919    40.4734  0.07  1.14225
 -2  1 15 4 1 o     13.6231    14.3511 180.42  1.14217
  2  5  2 4 1 o     2.0246    2.1156  1.22  1.14147
 -10  2  1 4 1 o    716.4814   738.5380  0.41  1.14059
  2  4  9 4 1 o    186.9420   191.8607 180.47  1.14034
  5  4  6 4 1 o     24.1871    24.6511 180.75  1.13997
 10  1  4 4 1 o    379.7177   384.0889  0.36  1.13959
 -10  2  2 4 1 o    511.7205   513.2311 180.40  1.13916
  8  1  9 4 1 o    591.5003   590.7061 180.19  1.13895
  9  1  7 4 1 o    704.9367   702.5317  0.17  1.13885
  6  4  4 4 1 o     4.1820    4.1225  2.39  1.13831
 -7  2 11 4 1 o    113.1243   110.0579 180.89  1.13765
 10  2  0 4 1 o     61.7094    59.5023 180.62  1.13719
  1  2 14 4 1 o     16.7988    16.0957  0.85  1.13684
 -8  1 11 4 1 o     3.7091    3.4759  0.08  1.13549
 -2  5  3 4 1 o     33.8381    31.5925 180.34  1.13523
  2  3 12 4 1 o    1826.9993   1696.5720 180.34  1.13483
 -6  3 10 4 1 o     2.8320    2.6180 180.19  1.13446
 -5  3 11 4 1 o     5.9836    5.5208 359.32  1.13430
  0  5  4 4 1 o    223.7369   206.3962  0.61  1.13429
 -5  1 14 4 1 o     68.6039    62.7738 359.73  1.13346
 -10  2  3 4 1 o     12.4678    11.3671  1.00  1.13296
 -1  5  4 4 1 o    184.3875   167.3822 180.71  1.13179
 -5  2 13 4 1 o     40.0349    36.3382 181.17  1.13146
  7  3  7 4 1 o     31.8994    28.9700 180.57  1.13107
  1  1 15 4 1 o     22.8177    20.7519  0.09  1.13065
 -3  2 14 4 1 o    166.2420   151.1897  0.10  1.13065
 -7  4  1 4 1 o     94.8025    86.9096 179.76  1.12952
  3  5  0 4 1 o     94.0549    86.4190 180.31  1.12929
 10  2  1 4 1 o     16.8117    15.4789 180.67  1.12908
 -3  5  1 4 1 o    109.7770   101.5716  0.59  1.12863
  2  5  3 4 1 o    584.2682   542.1428  0.42  1.12838
  7  4  0 4 1 o    444.1495   414.4137 180.30  1.12791
  1  5  4 4 1 o     2.4692    2.3210 181.63  1.12726
 -3  1 15 4 1 o    888.5917   839.4570 180.27  1.12680
 -7  4  2 4 1 o    1051.5505   997.0585  0.38  1.12644
 -9  0 10 2 1 o     21.2209    20.1303 180.20  1.12640
 -1  4 10 4 1 o     65.7023    62.8047 180.08  1.12559
  4  0 14 2 1 o    294.6662   281.8535  0.32  1.12551
 -9  3  1 4 1 o    315.4845   302.1019 180.10  1.12539
  3  5  1 4 1 o    335.6976   321.8413 180.24  1.12525
 -6  4  6 4 1 o    1367.1687   1311.4510  0.29  1.12519
  0  4 10 4 1 o     19.6850    18.9703 180.70  1.12466
 -11  0  2 2 1 o     8.1585    7.8848 359.38  1.12433
 -10  1  7 4 1 o    113.4594   109.7643  0.43  1.12422
  5  3 10 4 1 o     26.5800    25.7244 180.07  1.12418
 -9  3  2 4 1 o    161.4504   157.2524  0.15  1.12346
 -3  5  2 4 1 o    555.5970   541.8111 180.42  1.12333
  6  1 12 4 1 o     93.7711    91.5226 180.37  1.12323
  9  3  0 4 1 o    638.4785   626.2758  0.34  1.12268
 -10  2  4 4 1 o    372.2700   366.7135  0.12  1.12221
  8  3  5 4 1 o     0.7101    0.7029 179.14  1.12169
  7  4  1 4 1 o     7.3906    7.3173 181.96  1.12166
 11  0  0 2 1 o    167.6946   166.5341 180.23  1.12132
  4  3 11 4 1 o    339.2397   338.2635  0.07  1.12085
  8  2  8 4 1 o     14.7065    14.6704  0.59  1.12079
  5  1 13 4 1 o     96.4710    96.4299  0.38  1.12052
 -2  5  4 4 1 o    136.3195   136.7090  0.75  1.11997
 -8  3  7 4 1 o     28.8629    28.9783 180.74  1.11971
  5  2 12 4 1 o    1498.9888   1505.8456 180.33  1.11953
 -7  3  9 4 1 o    201.0952   202.0744  0.22  1.11942
  9  0  8 2 1 o    3677.0251   3695.3621 180.37  1.11936
 -4  3 12 4 1 o     1.7540    1.7637 178.86  1.11895
 -7  4  3 4 1 o    1347.4261   1354.8257  0.41  1.11879
  6  2 11 4 1 o    361.9244   363.6403 180.39  1.11819
 -8  2 10 4 1 o     19.2504    19.3229 180.88  1.11783
 -9  2  8 4 1 o    412.5784   413.6707  0.43  1.11751
 -2  4 10 4 1 o     2.7214    2.7254  0.43  1.11723
 -9  3  3 4 1 o    1200.3822   1200.5608  0.47  1.11696
  3  5  2 4 1 o     70.3074    70.2111  0.10  1.11669
 10  2  2 4 1 o    491.8074   490.8047  0.19  1.11658
 -10  0  8 2 1 o     8.0163    7.9509  0.99  1.11571
  4  4  8 4 1 o     34.5674    34.2791 359.95  1.11568
  9  3  1 4 1 o     4.7982    4.7483 180.11  1.11543
  2  2 14 4 1 o    162.4721   160.0783 180.52  1.11491
  6  3  9 4 1 o    195.9486   192.8318  0.39  1.11478
  1  4 10 4 1 o     12.5698    12.3416  1.42  1.11453
 -4  4  9 4 1 o     67.7633    66.3948 180.51  1.11430
 -5  4  8 4 1 o    477.6091   466.5197 180.52  1.11397
  6  4  5 4 1 o     39.8877    38.9554 180.29  1.11395
 -3  5  3 4 1 o    253.0755   246.2592  0.50  1.11355
  0  5  5 4 1 o     25.4665    24.7514  1.33  1.11343
  7  1 11 4 1 o    988.2858   959.0919 180.25  1.11326
 10  1  5 4 1 o    469.8475   454.8232  0.41  1.11297
  9  2  6 4 1 o     2.3018    2.2141  0.93  1.11215
  3  4  9 4 1 o    442.1480   424.4090  0.51  1.11183
 -1  5  5 4 1 o     12.3197    11.8102 181.21  1.11161
 -1  3 13 4 1 o    449.9733   431.3113 180.18  1.11159
  2  5  4 4 1 o    342.8300   328.0013  0.27  1.11123
  7  4  2 4 1 o    179.7972   171.8525 180.60  1.11101
  8  0 10 2 1 o    931.6934   890.2626 180.28  1.11094
 -6  0 14 2 1 o    821.3777   783.9880 180.09  1.11066
 -11  0  4 2 1 o     91.7311    87.2339 359.71  1.10910
  0  3 13 4 1 o    1869.2163   1777.5336 180.38  1.10908
  2  1 15 4 1 o     47.0973    44.7653 180.28  1.10853
  4  2 13 4 1 o    110.1849   104.7184  0.23  1.10833
 -8  0 12 2 1 o     13.3649    12.6973 179.32  1.10742
 -10  2  5 4 1 o    457.1432   434.2856 180.41  1.10731
  5  4  7 4 1 o    332.1659   315.5129  0.51  1.10709
 -7  4  4 4 1 o     58.9294    55.9629  0.84  1.10683
  1  5  5 4 1 o    330.4321   313.5814 180.59  1.10624
 -9  1 10 4 1 o    239.2985   227.0913  0.36  1.10623
 -4  2 14 4 1 o    803.4063   762.3751  0.36  1.10618
 -9  3  4 4 1 o     1.5701    1.4898 179.97  1.10613
  4  1 14 4 1 o     21.6848    20.5613  0.45  1.10539
 -2  3 13 4 1 o    200.5585   190.1607  0.30  1.10513
  3  3 12 4 1 o    1018.9868   966.1605  0.39  1.10512
 -11  1  1 4 1 o     75.7332    71.8093  0.28  1.10504
  7  2 10 4 1 o     70.0286    66.4602 180.54  1.10447
 -11  1  2 4 1 o     4.8398    4.5960  0.01  1.10428
  9  3  2 4 1 o     23.9622    22.7946  0.13  1.10389
  3  5  3 4 1 o     4.7421    4.5109 359.72  1.10390
 -4  1 15 4 1 o     98.4765    94.2118 180.19  1.10310
 10  0  6 2 1 o    293.4511   281.2255  0.73  1.10291
 11  1  0 4 1 o     2.5573    2.4869 359.73  1.10142
 -2  5  5 4 1 o    212.6688   207.7047 180.26  1.10093
 11  0  2 2 1 o     1.0026    0.9823  0.57  1.10050
 -3  4 10 4 1 o    283.6624   278.4697 180.35  1.10020
 10  2  3 4 1 o    316.0296   310.4350  0.44  1.10010
 -3  5  4 4 1 o    515.3316   507.4817 180.54  1.09966
  9  1  8 4 1 o    498.8808   491.5523  0.47  1.09956
 -6  4  7 4 1 o    397.1772   392.0288 180.45  1.09924
 -11  1  3 4 1 o    1377.7544   1360.6075 180.37  1.09915
  1  3 13 4 1 o    831.3583   828.8134  0.46  1.09779
 -1  0 16 2 1 o    219.3443   219.1173  0.54  1.09758
  4  5  0 4 1 o    1566.1343   1565.0020 180.24  1.09754
 -4  5  1 4 1 o    944.1238   944.1596 180.47  1.09747
 -7  1 13 4 1 o    177.6306   179.0682 180.51  1.09671
  7  4  3 4 1 o     89.1466    90.2452 180.59  1.09633
 -10  1  8 4 1 o    1459.7821   1481.5305 180.45  1.09610
  2  4 10 4 1 o    2721.0933   2767.1904 180.36  1.09591
  0  0 16 2 1 o     5.8534    6.0452 181.17  1.09362
  7  3  8 4 1 o     7.4520    7.6971 359.91  1.09358
 11  1  1 4 1 o    1116.2467   1153.0907  0.34  1.09354
  4  5  1 4 1 o    179.8132   185.8416 180.54  1.09333
 -4  5  2 4 1 o    157.7811   163.1283 180.23  1.09310
  8  3  6 4 1 o     3.7503    3.8776  2.03  1.09303
 -2  0 16 2 1 o     58.1975    60.1782 180.88  1.09290
  8  1 10 4 1 o    795.8839   821.0612 180.49  1.09158
 -9  3  5 4 1 o    281.2177   289.8859  0.73  1.09133
 -6  1 14 4 1 o    271.3990   279.7466  0.56  1.09131
 -7  4  5 4 1 o     1.9654    2.0238 177.63  1.09099
 -8  3  8 4 1 o     74.8725    77.0762 180.54  1.09089
  2  5  5 4 1 o     23.5823    24.2560  1.24  1.09057
 -6  3 11 4 1 o    169.4724   174.2971  0.35  1.09053
 -3  3 13 4 1 o     13.3784    13.7497  0.06  1.09017
 -11  1  4 4 1 o     2.5741    2.6443  1.16  1.08983
 -7  2 12 4 1 o    356.3940   366.0640  0.41  1.08962
  0  5  6 4 1 o    255.0585   261.9569 180.19  1.08943
 
# The following lines are used to test the character set of files sent by   
# network email or other means. They are not part of the CIF data set.    
# abcdefghijklmnopqrstuvwxyzABCDEFGHIJKLMNOPQRSTUVWXYZ0123456789       
# !@#$%^&*()_+{}:"~<>?|\-=[];'`,./ 
